1



                                 *********************************************

                                    NUMERICAL ELECTROMAGNETICS CODE (NEC-2D)

                                 *********************************************




                                     - - - - COMMENTS - - - -


                                                                                                     
                                                                                                     




                                 - - - STRUCTURE SPECIFICATION - - -

                                     COORDINATES MUST BE INPUT IN
                                     METERS OR BE SCALED TO METERS
                                     BEFORE STRUCTURE INPUT IS ENDED


  WIRE                                                                               NO. OF    FIRST  LAST     TAG
  NO.        X1         Y1         Z1          X2         Y2         Z2      RADIUS   SEG.     SEG.   SEG.     NO.
     1    0.10000    0.00000    0.20000     0.09900    0.01700    0.20000    0.00250      1        1     1       1
     2    0.09900    0.01700    0.20000     0.09400    0.03400    0.20000    0.00250      1        2     2       1
     3    0.09400    0.03400    0.20000     0.08700    0.04900    0.20000    0.00250      1        3     3       1
     4    0.08700    0.04900    0.20000     0.07700    0.06300    0.20000    0.00250      1        4     4       1
     5    0.07700    0.06300    0.20000     0.06500    0.07600    0.20000    0.00250      1        5     5       1
     6    0.06500    0.07600    0.20000     0.05100    0.08600    0.20000    0.00250      1        6     6       1
     7    0.05100    0.08600    0.20000     0.03600    0.09300    0.20000    0.00250      1        7     7       1
     8    0.03600    0.09300    0.20000     0.02000    0.09800    0.20000    0.00250      1        8     8       1
     9    0.02000    0.09800    0.20000     0.00200    0.10000    0.20000    0.00250      1        9     9       1
    10    0.00200    0.10000    0.20000    -0.01500    0.09900    0.20000    0.00250      1       10    10       1
    11   -0.01500    0.09900    0.20000    -0.03100    0.09500    0.20000    0.00250      1       11    11       1
    12   -0.03100    0.09500    0.20000    -0.04700    0.08800    0.20000    0.00250      1       12    12       1
    13   -0.04700    0.08800    0.20000    -0.06100    0.07900    0.20000    0.00250      1       13    13       1
    14   -0.06100    0.07900    0.20000    -0.07400    0.06700    0.20000    0.00250      1       14    14       1
    15   -0.07400    0.06700    0.20000    -0.08400    0.05400    0.20000    0.00250      1       15    15       1
    16   -0.08400    0.05400    0.20000    -0.09200    0.03800    0.20000    0.00250      1       16    16       1
    17   -0.09200    0.03800    0.20000    -0.09800    0.02200    0.20000    0.00250      1       17    17       1
    18   -0.09800    0.02200    0.20000    -0.10000    0.00500    0.20000    0.00250      1       18    18       1
    19   -0.10000    0.00500    0.20000    -0.09900   -0.01200    0.20000    0.00250      1       19    19       1
    20   -0.09900   -0.01200    0.20000    -0.09600   -0.02900    0.20000    0.00250      1       20    20       1
    21   -0.09600   -0.02900    0.20000    -0.08900   -0.04500    0.20000    0.00250      1       21    21       1
    22   -0.08900   -0.04500    0.20000    -0.08000   -0.05900    0.20000    0.00250      1       22    22       1
    23   -0.08000   -0.05900    0.20000    -0.06900   -0.07200    0.20000    0.00250      1       23    23       1
    24   -0.06900   -0.07200    0.20000    -0.05600   -0.08300    0.20000    0.00250      1       24    24       1
    25   -0.05600   -0.08300    0.20000    -0.04100   -0.09100    0.20000    0.00250      1       25    25       1
    26   -0.04100   -0.09100    0.20000    -0.02400   -0.09700    0.20000    0.00250      1       26    26       1
    27   -0.02400   -0.09700    0.20000    -0.00700   -0.10000    0.20000    0.00250      1       27    27       1
    28   -0.00700   -0.10000    0.20000     0.01000   -0.10000    0.20000    0.00250      1       28    28       1
    29    0.01000   -0.10000    0.20000     0.02700   -0.09600    0.20000    0.00250      1       29    29       1
    30    0.02700   -0.09600    0.20000     0.04300   -0.09000    0.20000    0.00250      1       30    30       1
    31    0.04300   -0.09000    0.20000     0.05700   -0.08200    0.20000    0.00250      1       31    31       1
    32    0.05700   -0.08200    0.20000     0.07100   -0.07100    0.20000    0.00250      1       32    32       1
    33    0.07100   -0.07100    0.20000     0.08200   -0.05800    0.20000    0.00250      1       33    33       1
    34    0.08200   -0.05800    0.20000     0.09000   -0.04300    0.20000    0.00250      1       34    34       1
    35    0.09000   -0.04300    0.20000     0.09600   -0.02700    0.20000    0.00250      1       35    35       1
    36    0.09600   -0.02700    0.20000     0.10000   -0.01000    0.20000    0.00250      1       36    36     999
    37    0.10000    0.00000    0.00000     0.09900    0.01700    0.00000    0.00250      1       37    37       2
    38    0.09900    0.01700    0.00000     0.09400    0.03400    0.00000    0.00250      1       38    38       2
    39    0.09400    0.03400    0.00000     0.08700    0.04900    0.00000    0.00250      1       39    39       2
    40    0.08700    0.04900    0.00000     0.07700    0.06300    0.00000    0.00250      1       40    40       2
    41    0.07700    0.06300    0.00000     0.06500    0.07600    0.00000    0.00250      1       41    41       2
    42    0.06500    0.07600    0.00000     0.05100    0.08600    0.00000    0.00250      1       42    42       2
    43    0.05100    0.08600    0.00000     0.03600    0.09300    0.00000    0.00250      1       43    43       2
    44    0.03600    0.09300    0.00000     0.02000    0.09800    0.00000    0.00250      1       44    44       2
    45    0.02000    0.09800    0.00000     0.00200    0.10000    0.00000    0.00250      1       45    45       2
    46    0.00200    0.10000    0.00000    -0.01500    0.09900    0.00000    0.00250      1       46    46       2
    47   -0.01500    0.09900    0.00000    -0.03100    0.09500    0.00000    0.00250      1       47    47       2
    48   -0.03100    0.09500    0.00000    -0.04700    0.08800    0.00000    0.00250      1       48    48       2
    49   -0.04700    0.08800    0.00000    -0.06100    0.07900    0.00000    0.00250      1       49    49       2
    50   -0.06100    0.07900    0.00000    -0.07400    0.06700    0.00000    0.00250      1       50    50       2
    51   -0.07400    0.06700    0.00000    -0.08400    0.05400    0.00000    0.00250      1       51    51       2
    52   -0.08400    0.05400    0.00000    -0.09200    0.03800    0.00000    0.00250      1       52    52       2
    53   -0.09200    0.03800    0.00000    -0.09800    0.02200    0.00000    0.00250      1       53    53       2
    54   -0.09800    0.02200    0.00000    -0.10000    0.00500    0.00000    0.00250      1       54    54       2
    55   -0.10000    0.00500    0.00000    -0.09900   -0.01200    0.00000    0.00250      1       55    55       2
    56   -0.09900   -0.01200    0.00000    -0.09600   -0.02900    0.00000    0.00250      1       56    56       2
    57   -0.09600   -0.02900    0.00000    -0.08900   -0.04500    0.00000    0.00250      1       57    57       2
    58   -0.08900   -0.04500    0.00000    -0.08000   -0.05900    0.00000    0.00250      1       58    58       2
    59   -0.08000   -0.05900    0.00000    -0.06900   -0.07200    0.00000    0.00250      1       59    59       2
    60   -0.06900   -0.07200    0.00000    -0.05600   -0.08300    0.00000    0.00250      1       60    60       2
    61   -0.05600   -0.08300    0.00000    -0.04100   -0.09100    0.00000    0.00250      1       61    61       2
    62   -0.04100   -0.09100    0.00000    -0.02400   -0.09700    0.00000    0.00250      1       62    62       2
    63   -0.02400   -0.09700    0.00000    -0.00700   -0.10000    0.00000    0.00250      1       63    63       2
    64   -0.00700   -0.10000    0.00000     0.01000   -0.10000    0.00000    0.00250      1       64    64       2
    65    0.01000   -0.10000    0.00000     0.02700   -0.09600    0.00000    0.00250      1       65    65       2
    66    0.02700   -0.09600    0.00000     0.04300   -0.09000    0.00000    0.00250      1       66    66       2
    67    0.04300   -0.09000    0.00000     0.05700   -0.08200    0.00000    0.00250      1       67    67       2
    68    0.05700   -0.08200    0.00000     0.07100   -0.07100    0.00000    0.00250      1       68    68       2
    69    0.07100   -0.07100    0.00000     0.08200   -0.05800    0.00000    0.00250      1       69    69       2
    70    0.08200   -0.05800    0.00000     0.09000   -0.04300    0.00000    0.00250      1       70    70       2
    71    0.09000   -0.04300    0.00000     0.09600   -0.02700    0.00000    0.00250      1       71    71       2
    72    0.09600   -0.02700    0.00000     0.10000   -0.01000    0.00000    0.00250      1       72    72       2
    73    0.10000    0.00000    0.00000     0.10000    0.00000    0.20000    0.00250      4       73    76       3
    74    0.10000   -0.01000    0.00000     0.10000   -0.01000    0.20000    0.00250      4       77    80       4
      THE STRUCTURE HAS BEEN MOVED, MOVE DATA CARD IS -
        0    0   0.00000   0.00000   0.00000   0.00000   0.00000   8.00000   0.00000

   GROUND PLANE SPECIFIED.

   TOTAL SEGMENTS USED=   80     NO. SEG. IN A SYMMETRIC CELL=   80     SYMMETRY FLAG=  0


         - MULTIPLE WIRE JUNCTIONS -
 JUNCTION    SEGMENTS  (- FOR END 1, + FOR END 2)
  NONE




                                 - - - - SEGMENTATION DATA - - - -

                                        COORDINATES IN METERS

                         I+ AND I- INDICATE THE SEGMENTS BEFORE AND AFTER I


  SEG.   COORDINATES OF SEG. CENTER     SEG.     ORIENTATION ANGLES    WIRE    CONNECTION DATA   TAG
  NO.       X         Y         Z       LENGTH     ALPHA     BETA      RADIUS    I-   I    I+    NO.
     1   0.09950   0.00850   8.20000   0.01703    0.00000  93.36646   0.00250    76    1    2      1
     2   0.09650   0.02550   8.20000   0.01772    0.00000 106.38954   0.00250     1    2    3      1
     3   0.09050   0.04150   8.20000   0.01655    0.00000 115.01689   0.00250     2    3    4      1
     4   0.08200   0.05600   8.20000   0.01720    0.00000 125.53768   0.00250     3    4    5      1
     5   0.07100   0.06950   8.20000   0.01769    0.00000 132.70939   0.00250     4    5    6      1
     6   0.05800   0.08100   8.20000   0.01720    0.00000 144.46232   0.00250     5    6    7      1
     7   0.04350   0.08950   8.20000   0.01655    0.00000 154.98311   0.00250     6    7    8      1
     8   0.02800   0.09550   8.20000   0.01676    0.00000 162.64598   0.00250     7    8    9      1
     9   0.01100   0.09900   8.20000   0.01811    0.00000 173.65981   0.00250     8    9   10      1
    10  -0.00650   0.09950   8.20000   0.01703    0.00000-176.63354   0.00250     9   10   11      1
    11  -0.02300   0.09700   8.20000   0.01649    0.00000-165.96376   0.00250    10   11   12      1
    12  -0.03900   0.09150   8.20000   0.01746    0.00000-156.37062   0.00250    11   12   13      1
    13  -0.05400   0.08350   8.20000   0.01664    0.00000-147.26477   0.00250    12   13   14      1
    14  -0.06750   0.07300   8.20000   0.01769    0.00000-137.29061   0.00250    13   14   15      1
    15  -0.07900   0.06050   8.20000   0.01640    0.00000-127.56859   0.00250    14   15   16      1
    16  -0.08800   0.04600   8.20000   0.01789    0.00000-116.56505   0.00250    15   16   17      1
    17  -0.09500   0.03000   8.20000   0.01709    0.00000-110.55605   0.00250    16   17   18      1
    18  -0.09900   0.01350   8.20000   0.01712    0.00000 -96.70984   0.00250    17   18   19      1
    19  -0.09950  -0.00350   8.20000   0.01703    0.00000 -86.63354   0.00250    18   19   20      1
    20  -0.09750  -0.02050   8.20000   0.01726    0.00000 -79.99202   0.00250    19   20   21      1
    21  -0.09250  -0.03700   8.20000   0.01746    0.00000 -66.37062   0.00250    20   21   22      1
    22  -0.08450  -0.05200   8.20000   0.01664    0.00000 -57.26477   0.00250    21   22   23      1
    23  -0.07450  -0.06550   8.20000   0.01703    0.00000 -49.76364   0.00250    22   23   24      1
    24  -0.06250  -0.07750   8.20000   0.01703    0.00000 -40.23636   0.00250    23   24   25      1
    25  -0.04850  -0.08700   8.20000   0.01700    0.00000 -28.07249   0.00250    24   25   26      1
    26  -0.03250  -0.09400   8.20000   0.01803    0.00000 -19.44003   0.00250    25   26   27      1
    27  -0.01550  -0.09850   8.20000   0.01726    0.00000 -10.00798   0.00250    26   27   28      1
    28   0.00150  -0.10000   8.20000   0.01700    0.00000   0.00000   0.00250    27   28   29      1
    29   0.01850  -0.09800   8.20000   0.01746    0.00000  13.24052   0.00250    28   29   30      1
    30   0.03500  -0.09300   8.20000   0.01709    0.00000  20.55605   0.00250    29   30   31      1
    31   0.05000  -0.08600   8.20000   0.01612    0.00000  29.74488   0.00250    30   31   32      1
    32   0.06400  -0.07650   8.20000   0.01780    0.00000  38.15723   0.00250    31   32   33      1
    33   0.07650  -0.06450   8.20000   0.01703    0.00000  49.76364   0.00250    32   33   34      1
    34   0.08600  -0.05050   8.20000   0.01700    0.00000  61.92751   0.00250    33   34   35      1
    35   0.09300  -0.03500   8.20000   0.01709    0.00000  69.44395   0.00250    34   35   36      1
    36   0.09800  -0.01850   8.20000   0.01746    0.00000  76.75948   0.00250    35   36  -80    999
    37   0.09950   0.00850   8.00000   0.01703    0.00000  93.36646   0.00250   -73   37   38      2
    38   0.09650   0.02550   8.00000   0.01772    0.00000 106.38954   0.00250    37   38   39      2
    39   0.09050   0.04150   8.00000   0.01655    0.00000 115.01689   0.00250    38   39   40      2
    40   0.08200   0.05600   8.00000   0.01720    0.00000 125.53768   0.00250    39   40   41      2
    41   0.07100   0.06950   8.00000   0.01769    0.00000 132.70939   0.00250    40   41   42      2
    42   0.05800   0.08100   8.00000   0.01720    0.00000 144.46232   0.00250    41   42   43      2
    43   0.04350   0.08950   8.00000   0.01655    0.00000 154.98311   0.00250    42   43   44      2
    44   0.02800   0.09550   8.00000   0.01676    0.00000 162.64598   0.00250    43   44   45      2
    45   0.01100   0.09900   8.00000   0.01811    0.00000 173.65981   0.00250    44   45   46      2
    46  -0.00650   0.09950   8.00000   0.01703    0.00000-176.63354   0.00250    45   46   47      2
    47  -0.02300   0.09700   8.00000   0.01649    0.00000-165.96376   0.00250    46   47   48      2
    48  -0.03900   0.09150   8.00000   0.01746    0.00000-156.37062   0.00250    47   48   49      2
    49  -0.05400   0.08350   8.00000   0.01664    0.00000-147.26477   0.00250    48   49   50      2
    50  -0.06750   0.07300   8.00000   0.01769    0.00000-137.29061   0.00250    49   50   51      2
    51  -0.07900   0.06050   8.00000   0.01640    0.00000-127.56859   0.00250    50   51   52      2
    52  -0.08800   0.04600   8.00000   0.01789    0.00000-116.56505   0.00250    51   52   53      2
    53  -0.09500   0.03000   8.00000   0.01709    0.00000-110.55605   0.00250    52   53   54      2
    54  -0.09900   0.01350   8.00000   0.01712    0.00000 -96.70984   0.00250    53   54   55      2
    55  -0.09950  -0.00350   8.00000   0.01703    0.00000 -86.63354   0.00250    54   55   56      2
    56  -0.09750  -0.02050   8.00000   0.01726    0.00000 -79.99202   0.00250    55   56   57      2
    57  -0.09250  -0.03700   8.00000   0.01746    0.00000 -66.37062   0.00250    56   57   58      2
    58  -0.08450  -0.05200   8.00000   0.01664    0.00000 -57.26477   0.00250    57   58   59      2
    59  -0.07450  -0.06550   8.00000   0.01703    0.00000 -49.76364   0.00250    58   59   60      2
    60  -0.06250  -0.07750   8.00000   0.01703    0.00000 -40.23636   0.00250    59   60   61      2
    61  -0.04850  -0.08700   8.00000   0.01700    0.00000 -28.07249   0.00250    60   61   62      2
    62  -0.03250  -0.09400   8.00000   0.01803    0.00000 -19.44003   0.00250    61   62   63      2
    63  -0.01550  -0.09850   8.00000   0.01726    0.00000 -10.00798   0.00250    62   63   64      2
    64   0.00150  -0.10000   8.00000   0.01700    0.00000   0.00000   0.00250    63   64   65      2
    65   0.01850  -0.09800   8.00000   0.01746    0.00000  13.24052   0.00250    64   65   66      2
    66   0.03500  -0.09300   8.00000   0.01709    0.00000  20.55605   0.00250    65   66   67      2
    67   0.05000  -0.08600   8.00000   0.01612    0.00000  29.74488   0.00250    66   67   68      2
    68   0.06400  -0.07650   8.00000   0.01780    0.00000  38.15723   0.00250    67   68   69      2
    69   0.07650  -0.06450   8.00000   0.01703    0.00000  49.76364   0.00250    68   69   70      2
    70   0.08600  -0.05050   8.00000   0.01700    0.00000  61.92751   0.00250    69   70   71      2
    71   0.09300  -0.03500   8.00000   0.01709    0.00000  69.44395   0.00250    70   71   72      2
    72   0.09800  -0.01850   8.00000   0.01746    0.00000  76.75948   0.00250    71   72   77      2
    73   0.10000   0.00000   8.02500   0.05000   90.00000   0.00000   0.00250   -37   73   74      3
    74   0.10000   0.00000   8.07500   0.05000   90.00000   0.00000   0.00250    73   74   75      3
    75   0.10000   0.00000   8.12500   0.05000   90.00000   0.00000   0.00250    74   75   76      3
    76   0.10000   0.00000   8.17500   0.05000   90.00000   0.00000   0.00250    75   76    1      3
    77   0.10000  -0.01000   8.02500   0.05000   90.00000   0.00000   0.00250    72   77   78      4
    78   0.10000  -0.01000   8.07500   0.05000   90.00000   0.00000   0.00250    77   78   79      4
    79   0.10000  -0.01000   8.12500   0.05000   90.00000   0.00000   0.00250    78   79   80      4
    80   0.10000  -0.01000   8.17500   0.05000   90.00000   0.00000   0.00250    79   80  -36      4






 ***** DATA CARD NO.  1   GN   2     0     0     0  1.10000E+01  1.00000E-02  0.00000E+00  0.00000E+00  0.00000E+00  0.00000E+00
 ***** DATA CARD NO.  2   EX   0   999     1     0  1.00000E+00  0.00000E+00  0.00000E+00  0.00000E+00  0.00000E+00  0.00000E+00
 ***** DATA CARD NO.  3   FR   0     1     0     0  1.44200E+02  0.00000E+00  0.00000E+00  0.00000E+00  0.00000E+00  0.00000E+00
 ***** DATA CARD NO.  4   RP   0    19    37  1003  0.00000E+00  0.00000E+00  5.00000E+00  1.00000E+01  0.00000E+00  0.00000E+00




                                 - - - - - - FREQUENCY - - - - - -

                                    FREQUENCY= 1.4420E+02 MHZ
                                    WAVELENGTH= 2.0791E+00 METERS




                    APPROXIMATE INTEGRATION EMPLOYED FOR SEGMENTS MORE THAN   1.000 WAVELENGTHS APART



                               - - - STRUCTURE IMPEDANCE LOADING - - -

                                   THIS STRUCTURE IS NOT LOADED



                                  - - - ANTENNA ENVIRONMENT - - -

                                        FINITE GROUND.  SOMMERFELD SOLUTION
                                        RELATIVE DIELECTRIC CONST.= 11.000
                                        CONDUCTIVITY= 1.000E-02 MHOS/METER
                                        COMPLEX DIELECTRIC CONSTANT= 1.10000E+01-1.24660E+00



                                - - - MATRIX TIMING - - -

                        FILL=    0.031 SEC.,  FACTOR=    0.000 SEC.



                                          - - - ANTENNA INPUT PARAMETERS - - -

   TAG   SEG.    VOLTAGE (VOLTS)         CURRENT (AMPS)         IMPEDANCE (OHMS)        ADMITTANCE (MHOS)      POWER
   NO.   NO.    REAL        IMAG.       REAL        IMAG.       REAL        IMAG.       REAL        IMAG.     (WATTS)
   999    36 1.00000E+00 0.00000E+00 1.05441E-02 2.27871E-02 1.67253E+01-3.61453E+01 1.05441E-02 2.27871E-02 5.27207E-03



                             - - - CURRENTS AND LOCATION - - -

                                 DISTANCES IN WAVELENGTHS


  SEG.  TAG    COORD. OF SEG. CENTER     SEG.            - - - CURRENT (AMPS) - - -
  NO.   NO.     X        Y        Z      LENGTH     REAL        IMAG.       MAG.        PHASE
     1    1   0.0479   0.0041   3.9441  0.00819   1.0249E-02  1.7720E-02  2.0471E-02   59.955
     2    1   0.0464   0.0123   3.9441  0.00852   1.1224E-02  1.9664E-02  2.2642E-02   60.281
     3    1   0.0435   0.0200   3.9441  0.00796   1.2018E-02  2.1247E-02  2.4411E-02   60.507
     4    1   0.0394   0.0269   3.9441  0.00828   1.2716E-02  2.2645E-02  2.5971E-02   60.684
     5    1   0.0342   0.0334   3.9441  0.00851   1.3372E-02  2.3962E-02  2.7440E-02   60.836
     6    1   0.0279   0.0390   3.9441  0.00828   1.3971E-02  2.5170E-02  2.8787E-02   60.967
     7    1   0.0209   0.0430   3.9441  0.00796   1.4502E-02  2.6247E-02  2.9987E-02   61.079
     8    1   0.0135   0.0459   3.9441  0.00806   1.4982E-02  2.7228E-02  3.1078E-02   61.178
     9    1   0.0053   0.0476   3.9441  0.00871   1.5440E-02  2.8172E-02  3.2125E-02   61.274
    10    1  -0.0031   0.0479   3.9441  0.00819   1.5856E-02  2.9040E-02  3.3087E-02   61.365
    11    1  -0.0111   0.0467   3.9441  0.00793   1.6210E-02  2.9792E-02  3.3917E-02   61.449
    12    1  -0.0188   0.0440   3.9441  0.00840   1.6527E-02  3.0479E-02  3.4671E-02   61.532
    13    1  -0.0260   0.0402   3.9441  0.00801   1.6802E-02  3.1094E-02  3.5343E-02   61.615
    14    1  -0.0325   0.0351   3.9441  0.00851   1.7036E-02  3.1637E-02  3.5932E-02   61.698
    15    1  -0.0380   0.0291   3.9441  0.00789   1.7224E-02  3.2101E-02  3.6430E-02   61.784
    16    1  -0.0423   0.0221   3.9441  0.00860   1.7370E-02  3.2492E-02  3.6843E-02   61.872
    17    1  -0.0457   0.0144   3.9441  0.00822   1.7472E-02  3.2812E-02  3.7174E-02   61.965
    18    1  -0.0476   0.0065   3.9441  0.00823   1.7527E-02  3.3048E-02  3.7408E-02   62.060
    19    1  -0.0479  -0.0017   3.9441  0.00819   1.7538E-02  3.3207E-02  3.7554E-02   62.160
    20    1  -0.0469  -0.0099   3.9441  0.00830   1.7503E-02  3.3289E-02  3.7610E-02   62.265
    21    1  -0.0445  -0.0178   3.9441  0.00840   1.7423E-02  3.3293E-02  3.7576E-02   62.376
    22    1  -0.0406  -0.0250   3.9441  0.00801   1.7299E-02  3.3219E-02  3.7453E-02   62.491
    23    1  -0.0358  -0.0315   3.9441  0.00819   1.7133E-02  3.3068E-02  3.7243E-02   62.611
    24    1  -0.0301  -0.0373   3.9441  0.00819   1.6922E-02  3.2839E-02  3.6943E-02   62.737
    25    1  -0.0233  -0.0418   3.9441  0.00818   1.6668E-02  3.2530E-02  3.6552E-02   62.870
    26    1  -0.0156  -0.0452   3.9441  0.00867   1.6361E-02  3.2129E-02  3.6055E-02   63.013
    27    1  -0.0075  -0.0474   3.9441  0.00830   1.6006E-02  3.1638E-02  3.5457E-02   63.165
    28    1   0.0007  -0.0481   3.9441  0.00818   1.5616E-02  3.1077E-02  3.4780E-02   63.320
    29    1   0.0089  -0.0471   3.9441  0.00840   1.5180E-02  3.0425E-02  3.4002E-02   63.484
    30    1   0.0168  -0.0447   3.9441  0.00822   1.4696E-02  2.9681E-02  3.3120E-02   63.658
    31    1   0.0240  -0.0414   3.9441  0.00776   1.4186E-02  2.8876E-02  3.2173E-02   63.836
    32    1   0.0308  -0.0368   3.9441  0.00856   1.3617E-02  2.7958E-02  3.1098E-02   64.031
    33    1   0.0368  -0.0310   3.9441  0.00819   1.2976E-02  2.6905E-02  2.9870E-02   64.251
    34    1   0.0414  -0.0243   3.9441  0.00818   1.2285E-02  2.5749E-02  2.8529E-02   64.493
    35    1   0.0447  -0.0168   3.9441  0.00822   1.1507E-02  2.4440E-02  2.7013E-02   64.788
    36  999   0.0471  -0.0089   3.9441  0.00840   1.0544E-02  2.2787E-02  2.5108E-02   65.169
    37    2   0.0479   0.0041   3.8479  0.00819   1.0536E-02  2.3777E-02  2.6007E-02   66.102
    38    2   0.0464   0.0123   3.8479  0.00852   1.1501E-02  2.5653E-02  2.8113E-02   65.852
    39    2   0.0435   0.0200   3.8479  0.00796   1.2282E-02  2.7143E-02  2.9793E-02   65.653
    40    2   0.0394   0.0269   3.8479  0.00828   1.2968E-02  2.8428E-02  3.1246E-02   65.479
    41    2   0.0342   0.0334   3.8479  0.00851   1.3610E-02  2.9610E-02  3.2588E-02   65.314
    42    2   0.0279   0.0390   3.8479  0.00828   1.4195E-02  3.0665E-02  3.3791E-02   65.161
    43    2   0.0209   0.0430   3.8479  0.00796   1.4711E-02  3.1578E-02  3.4836E-02   65.021
    44    2   0.0135   0.0459   3.8479  0.00806   1.5176E-02  3.2382E-02  3.5762E-02   64.890
    45    2   0.0053   0.0476   3.8479  0.00871   1.5617E-02  3.3127E-02  3.6624E-02   64.759
    46    2  -0.0031   0.0479   3.8479  0.00819   1.6016E-02  3.3780E-02  3.7385E-02   64.634
    47    2  -0.0111   0.0467   3.8479  0.00793   1.6353E-02  3.4315E-02  3.8012E-02   64.519
    48    2  -0.0188   0.0440   3.8479  0.00840   1.6652E-02  3.4770E-02  3.8552E-02   64.409
    49    2  -0.0260   0.0402   3.8479  0.00801   1.6909E-02  3.5140E-02  3.8997E-02   64.303
    50    2  -0.0325   0.0351   3.8479  0.00851   1.7124E-02  3.5427E-02  3.9348E-02   64.202
    51    2  -0.0380   0.0291   3.8479  0.00789   1.7294E-02  3.5626E-02  3.9602E-02   64.107
    52    2  -0.0423   0.0221   3.8479  0.00860   1.7420E-02  3.5742E-02  3.9761E-02   64.016
    53    2  -0.0457   0.0144   3.8479  0.00822   1.7503E-02  3.5773E-02  3.9825E-02   63.929
    54    2  -0.0476   0.0065   3.8479  0.00823   1.7538E-02  3.5718E-02  3.9791E-02   63.848
    55    2  -0.0479  -0.0017   3.8479  0.00819   1.7529E-02  3.5580E-02  3.9664E-02   63.772
    56    2  -0.0469  -0.0099   3.8479  0.00830   1.7475E-02  3.5359E-02  3.9441E-02   63.701
    57    2  -0.0445  -0.0178   3.8479  0.00840   1.7375E-02  3.5050E-02  3.9120E-02   63.632
    58    2  -0.0406  -0.0250   3.8479  0.00801   1.7231E-02  3.4664E-02  3.8711E-02   63.568
    59    2  -0.0358  -0.0315   3.8479  0.00819   1.7047E-02  3.4204E-02  3.8217E-02   63.509
    60    2  -0.0301  -0.0373   3.8479  0.00819   1.6817E-02  3.3658E-02  3.7626E-02   63.451
    61    2  -0.0233  -0.0418   3.8479  0.00818   1.6544E-02  3.3032E-02  3.6943E-02   63.395
    62    2  -0.0156  -0.0452   3.8479  0.00867   1.6219E-02  3.2303E-02  3.6146E-02   63.339
    63    2  -0.0075  -0.0474   3.8479  0.00830   1.5845E-02  3.1481E-02  3.5244E-02   63.282
    64    2   0.0007  -0.0481   3.8479  0.00818   1.5439E-02  3.0599E-02  3.4273E-02   63.227
    65    2   0.0089  -0.0471   3.8479  0.00840   1.4985E-02  2.9626E-02  3.3200E-02   63.169
    66    2   0.0168  -0.0447   3.8479  0.00822   1.4485E-02  2.8562E-02  3.2025E-02   63.108
    67    2   0.0240  -0.0414   3.8479  0.00776   1.3961E-02  2.7451E-02  3.0797E-02   63.044
    68    2   0.0308  -0.0368   3.8479  0.00856   1.3377E-02  2.6222E-02  2.9437E-02   62.972
    69    2   0.0368  -0.0310   3.8479  0.00819   1.2722E-02  2.4849E-02  2.7917E-02   62.888
    70    2   0.0414  -0.0243   3.8479  0.00818   1.2018E-02  2.3379E-02  2.6287E-02   62.794
    71    2   0.0447  -0.0168   3.8479  0.00822   1.1228E-02  2.1737E-02  2.4465E-02   62.682
    72    2   0.0471  -0.0089   3.8479  0.00840   1.0255E-02  1.9731E-02  2.2237E-02   62.536
    73    3   0.0481   0.0000   3.8599  0.02405  -7.6384E-03 -1.8021E-02  1.9573E-02 -112.970
    74    3   0.0481   0.0000   3.8840  0.02405  -2.6993E-03 -8.1731E-03  8.6073E-03 -108.277
    75    3   0.0481   0.0000   3.9080  0.02405   2.3914E-03  2.0030E-03  3.1194E-03   39.948
    76    3   0.0481   0.0000   3.9321  0.02405   7.3398E-03  1.1909E-02  1.3989E-02   58.354
    77    4   0.0481  -0.0048   3.8599  0.02405   7.3341E-03  1.3781E-02  1.5611E-02   61.979
    78    4   0.0481  -0.0048   3.8840  0.02405   2.3889E-03  3.7195E-03  4.4206E-03   57.289
    79    4   0.0481  -0.0048   3.9080  0.02405  -2.6996E-03 -6.6475E-03  7.1747E-03 -112.102
    80    4   0.0481  -0.0048   3.9321  0.02405  -7.6354E-03 -1.6762E-02  1.8419E-02 -114.490



                                        - - - POWER BUDGET - - -

                                           INPUT POWER   = 5.2721E-03 WATTS
                                           RADIATED POWER= 5.2721E-03 WATTS
                                           STRUCTURE LOSS= 0.0000E+00 WATTS
                                           NETWORK LOSS  = 0.0000E+00 WATTS
                                           EFFICIENCY    = 100.00 PERCENT



                                                - - - RADIATION PATTERNS - - -

  - - ANGLES - -           - POWER GAINS -       - - - POLARIZATION - - -    - - - E(THETA) - - -    - - - E(PHI) - - -
  THETA     PHI        VERT.   HOR.    TOTAL      AXIAL     TILT   SENSE     MAGNITUDE    PHASE      MAGNITUDE    PHASE 
 DEGREES  DEGREES       DB      DB      DB        RATIO     DEG.              VOLTS/M    DEGREES      VOLTS/M    DEGREES
    0.00     0.00     -21.58   -3.19   -3.12    0.02396    83.27  LEFT      4.68831E-02    71.42    3.89548E-01    83.06
    5.00     0.00     -21.62   -2.32   -2.27    0.02691    84.01  LEFT      4.66647E-02    58.34    4.30602E-01    72.88
   10.00     0.00     -22.38   -0.37   -0.34    0.02350    85.67  LEFT      4.27466E-02    41.30    5.38793E-01    58.63
   15.00     0.00     -26.01    1.18    1.19    0.02255    87.86  LEFT      2.81613E-02    12.68    6.44401E-01    43.80
   20.00     0.00     -27.72    0.37    0.38    0.03483   -88.95  LEFT      2.31092E-02   -90.84    5.86709E-01    26.95
   25.00     0.00     -19.48   -7.34   -7.09    0.21925   -83.46  LEFT      5.97014E-02  -137.13    2.41370E-01   -20.97
   30.00     0.00     -19.23   -0.18   -0.13    0.04314    84.12  LEFT      6.14180E-02  -160.25    5.50449E-01  -137.25
   35.00     0.00     -26.60    2.54    2.54    0.03234   -89.24  LEFT      2.63123E-02    86.54    7.52950E-01  -161.20
   40.00     0.00     -16.78   -8.42   -7.83    0.33975    80.02  LEFT      8.14818E-02    24.31    2.13340E-01    90.35
   45.00     0.00     -24.31    4.09    4.10    0.03340    88.96  LEFT      3.42397E-02   -42.59    9.00242E-01    18.87
   50.00     0.00     -16.13   -9.29   -8.47    0.45305   -87.70  LEFT      8.77517E-02  -158.19    1.92970E-01   -64.17
   55.00     0.00     -22.48    5.03    5.04    0.04187    89.74  LEFT      4.22530E-02   109.44    1.00348E+00  -166.64
   60.00     0.00     -16.02   -3.63   -3.38    0.11646    78.14  LEFT      8.88846E-02     7.53    3.70324E-01    37.94
   65.00     0.00     -18.49    4.03    4.06    0.06102   -87.52  LEFT      6.69159E-02  -119.35    8.94644E-01     5.82
   70.00     0.00     -17.48    5.11    5.14    0.05798    87.35  LEFT      7.51787E-02   142.61    1.01293E+00  -165.86
   75.00     0.00     -17.65  -13.42  -12.03    0.50285   -69.63  LEFT      7.37027E-02    18.16    1.19954E-01   134.02
   80.00     0.00     -15.60    6.08    6.11    0.08141   -89.28  LEFT      9.33202E-02   -90.87    1.13277E+00     7.88
   85.00     0.00     -14.26    5.87    5.91    0.09517    88.55  LEFT      1.08838E-01   114.99    1.10512E+00  -169.79
   90.00     0.00    -999.99 -190.48 -190.41    0.00000     0.00            2.07976E-11   -84.42    1.68309E-10     8.46
    0.00    10.00     -13.92   -3.50   -3.12    0.02396    73.27  LEFT      1.13249E-01    78.34    3.75659E-01    83.32
    5.00    10.00     -13.58   -2.61   -2.28    0.00518    74.22  LEFT      1.17671E-01    71.70    4.16270E-01    72.83
   10.00    10.00     -12.94   -0.61   -0.36    0.01725    76.44  RIGHT     1.26708E-01    62.71    5.24102E-01    58.38
   15.00    10.00     -13.46    1.00    1.15    0.03203    79.43  RIGHT     1.19379E-01    53.63    6.30794E-01    43.55
   20.00    10.00     -18.37    0.23    0.29    0.02694    83.48  RIGHT     6.78246E-02    40.34    5.77201E-01    26.91
   25.00    10.00     -23.61   -7.57   -7.47    0.15641    88.83  LEFT      3.70866E-02  -102.75    2.35127E-01   -19.98
   30.00    10.00     -14.37   -0.37   -0.20    0.03520    78.89  RIGHT     1.07543E-01  -127.53    5.38926E-01  -138.08
   35.00    10.00     -19.89    2.42    2.45    0.03235    86.03  RIGHT     5.69294E-02  -136.49    7.43103E-01  -161.60
   40.00    10.00     -17.90   -8.76   -8.26    0.22968    75.22  LEFT      7.16143E-02    45.23    2.05110E-01    89.74
   45.00    10.00     -18.59    3.99    4.02    0.02342    85.97  RIGHT     6.61623E-02    36.72    8.90249E-01    18.26
   50.00    10.00     -18.28   -9.58   -9.03    0.35895    85.50  LEFT      6.85380E-02  -143.42    1.86581E-01   -64.18
   55.00    10.00     -23.32    4.96    4.96    0.00152    87.79  LEFT      3.83601E-02  -169.49    9.94721E-01  -167.23
   60.00    10.00     -17.10   -3.75   -3.55    0.04355    78.12  LEFT      7.84666E-02    24.62    3.65246E-01    36.84
   65.00    10.00     -23.22    3.97    3.98    0.04156   -89.23  LEFT      3.87925E-02  -102.49    8.88262E-01     5.35
   70.00    10.00     -19.11    5.05    5.07    0.03430    87.05  LEFT      6.22788E-02   159.70    1.00595E+00  -166.55
   75.00    10.00     -19.53  -13.60  -12.61    0.47577   -80.08  LEFT      5.93495E-02    28.69    1.17486E-01   134.12
   80.00    10.00     -16.05    6.03    6.06    0.07858   -89.81  LEFT      8.85622E-02   -85.07    1.12611E+00     7.32
   85.00    10.00     -14.68    5.82    5.86    0.09146    88.67  LEFT      1.03681E-01   113.72    1.09875E+00  -170.41
   90.00    10.00    -999.99 -190.53 -190.46    0.00000     0.00            2.11327E-11   -83.06    1.67358E-10     7.88
    0.00    20.00     -10.06   -4.11   -3.12    0.02396    63.27  LEFT      1.76606E-01    80.18    3.50365E-01    83.59
    5.00    20.00      -9.58   -3.19   -2.29    0.01614    64.41  RIGHT     1.86659E-01    74.90    3.89530E-01    72.53
   10.00    20.00      -8.54   -1.11   -0.39    0.05752    67.15  RIGHT     2.10317E-01    66.81    4.94576E-01    57.65
   15.00    20.00      -8.37    0.57    1.09    0.08683    70.89  RIGHT     2.14454E-01    58.42    6.00625E-01    42.63
   20.00    20.00     -11.53   -0.13    0.17    0.09037    75.76  RIGHT     1.49129E-01    47.01    5.53842E-01    26.09
   25.00    20.00     -22.89   -8.00   -7.86    0.08779    81.06  LEFT      4.03061E-02   -49.79    2.23804E-01   -19.83
   30.00    20.00     -10.71   -0.72   -0.31    0.11609    73.58  RIGHT     1.63763E-01  -116.45    5.17472E-01  -139.92
   35.00    20.00     -12.61    2.16    2.30    0.10018    81.32  RIGHT     1.31612E-01  -128.84    7.20818E-01  -162.99
   40.00    20.00     -17.85   -9.24   -8.68    0.11627    70.57  LEFT      7.20078E-02    67.45    1.93991E-01    88.04
   45.00    20.00     -12.87    3.78    3.87    0.08256    83.06  RIGHT     1.27790E-01    51.35    8.68716E-01    16.64
   50.00    20.00     -19.98   -9.99   -9.57    0.25605    79.42  LEFT      5.63758E-02  -121.85    1.78063E-01   -65.23
   55.00    20.00     -16.97    4.79    4.82    0.04010    85.93  RIGHT     7.96819E-02  -139.24    9.75602E-01  -168.81
   60.00    20.00     -17.38   -3.95   -3.75    0.03052    78.10  RIGHT     7.60031E-02    43.34    3.56947E-01    34.73
   65.00    20.00     -27.69    3.83    3.84    0.02158    89.11  LEFT      2.32020E-02   -50.50    8.74086E-01     3.91
   70.00    20.00     -19.91    4.92    4.94    0.01065    86.77  LEFT      5.68354E-02  -178.93    9.90912E-01  -168.20
   75.00    20.00     -21.33  -13.85  -13.14    0.42281    89.82  LEFT      4.82548E-02    43.60    1.14126E-01   133.24
   80.00    20.00     -16.43    5.92    5.94    0.07605    89.64  LEFT      8.47948E-02   -79.47    1.11119E+00     5.81
   85.00    20.00     -15.11    5.71    5.74    0.08840    88.75  LEFT      9.87653E-02   111.81    1.08456E+00  -171.96
   90.00    20.00    -999.99 -190.64 -190.56    0.00000     0.00            2.14600E-11   -82.31    1.65220E-10     6.36
    0.00    30.00      -7.59   -5.05   -3.12    0.02396    53.27  LEFT      2.34683E-01    81.06    3.14434E-01    83.93
    5.00    30.00      -7.03   -4.09   -2.30    0.03648    54.56  RIGHT     2.50227E-01    76.32    3.51220E-01    71.90
   10.00    30.00      -5.81   -1.91   -0.43    0.09655    57.71  RIGHT     2.87966E-01    68.47    4.51263E-01    56.29
   15.00    30.00      -5.36   -0.11    1.02    0.14159    62.10  RIGHT     3.03400E-01    60.17    5.55112E-01    40.91
   20.00    30.00      -7.92   -0.72    0.04    0.15625    67.79  RIGHT     2.25840E-01    48.94    5.17619E-01    24.35
   25.00    30.00     -19.02   -8.65   -8.27    0.01218    73.16  LEFT      6.29218E-02   -23.13    2.07702E-01   -20.61
   30.00    30.00      -8.22   -1.24   -0.45    0.20188    68.15  RIGHT     2.18120E-01  -111.56    4.87471E-01  -142.91
   35.00    30.00      -8.89    1.75    2.11    0.17386    76.66  RIGHT     2.02014E-01  -126.87    6.87494E-01  -165.48
   40.00    30.00     -16.89   -9.86   -9.08    0.00182    65.99  RIGHT     8.04346E-02    85.33    1.80586E-01    85.05
   45.00    30.00      -9.53    3.46    3.67    0.14604    80.34  RIGHT     1.87759E-01    55.97    8.37268E-01    13.92
   50.00    30.00     -20.34  -10.50  -10.07    0.14601    73.96  LEFT      5.40640E-02   -96.78    1.67797E-01   -67.45
   55.00    30.00     -13.11    4.53    4.61    0.08414    84.26  RIGHT     1.24284E-01  -131.05    9.47667E-01  -171.44
   60.00    30.00     -16.88   -4.21   -3.98    0.10552    78.28  RIGHT     8.05526E-02    59.79    3.46154E-01    31.58
   65.00    30.00     -23.84    3.62    3.63    0.00011    87.58  LEFT      3.61213E-02     1.32    8.53253E-01     1.46
   70.00    30.00     -19.54    4.73    4.75    0.01298    86.58  RIGHT     5.93002E-02  -158.52    9.69179E-01  -170.82
   75.00    30.00     -22.54  -14.17  -13.58    0.34741    80.97  LEFT      4.19703E-02    62.77    1.10021E-01   131.34
   80.00    30.00     -16.73    5.74    5.77    0.07346    89.08  LEFT      8.19118E-02   -74.38    1.08930E+00     3.35
   85.00    30.00     -15.51    5.54    5.57    0.08605    88.79  LEFT      9.42763E-02   109.26    1.06384E+00  -174.47
   90.00    30.00    -999.99 -190.80 -190.73    0.00000     0.00            2.17580E-11   -82.16    1.62088E-10     3.90
    0.00    40.00      -5.88   -6.40   -3.12    0.02396    43.27  LEFT      2.85664E-01    81.61    2.68964E-01    84.36
    5.00    40.00      -5.28   -5.38   -2.32    0.05521    44.65  RIGHT     3.06263E-01    77.11    3.02570E-01    70.78
   10.00    40.00      -3.95   -3.05   -0.46    0.13336    48.06  RIGHT     3.56968E-01    69.33    3.95807E-01    54.05
   15.00    40.00      -3.33   -1.08    0.95    0.19559    52.93  RIGHT     3.83093E-01    61.02    4.96286E-01    38.10
   20.00    40.00      -5.60   -1.55   -0.11    0.22496    59.38  RIGHT     2.95178E-01    49.85    4.70298E-01    21.45
   25.00    40.00     -16.08   -9.54   -8.67    0.07165    65.01  RIGHT     8.83178E-02   -11.93    1.87423E-01   -22.58
   30.00    40.00      -6.47   -1.91   -0.61    0.29512    62.49  RIGHT     2.66892E-01  -109.03    4.51116E-01  -147.31
   35.00    40.00      -6.52    1.20    1.88    0.25640    72.08  RIGHT     2.65487E-01  -126.09    6.45520E-01  -169.24
   40.00    40.00     -15.69  -10.61   -9.43    0.12649    61.48  RIGHT     9.23066E-02    97.54    1.65806E-01    80.51
   45.00    40.00      -7.32    3.05    3.43    0.21571    77.96  RIGHT     2.41992E-01    57.97    7.98544E-01    10.02
   50.00    40.00     -19.45  -11.11  -10.52    0.02970    69.09  LEFT      5.99242E-02   -76.12    1.56388E-01   -71.03
   55.00    40.00     -10.63    4.21    4.35    0.13133    82.90  RIGHT     1.65275E-01  -127.69    9.13398E-01  -175.16
   60.00    40.00     -16.01   -4.53   -4.23    0.18033    78.89  RIGHT     8.89743E-02    71.93    3.33898E-01    27.34
   65.00    40.00     -19.74    3.36    3.38    0.02357    86.23  RIGHT     5.79127E-02    17.76    8.27614E-01    -2.00
   70.00    40.00     -18.51    4.49    4.51    0.03631    86.52  RIGHT     6.67527E-02  -143.46    9.42835E-01  -174.43
   75.00    40.00     -22.76  -14.54  -13.93    0.25799    73.74  LEFT      4.09311E-02    82.55    1.05412E-01   128.34
   80.00    40.00     -16.97    5.53    5.55    0.07045    88.53  LEFT      7.96860E-02   -70.12    1.06252E+00    -0.07
   85.00    40.00     -15.88    5.33    5.36    0.08439    88.78  LEFT      9.03880E-02   106.12    1.03858E+00  -177.92
   90.00    40.00    -999.99 -191.01 -190.93    0.00000     0.00            2.20072E-11   -82.60    1.58260E-10     0.49
    0.00    50.00      -4.68   -8.34   -3.12    0.02396    33.27  LEFT      3.27983E-01    82.00    2.15343E-01    84.99
    5.00    50.00      -4.04   -7.21   -2.33    0.07174    34.67  RIGHT     3.53011E-01    77.59    2.45205E-01    68.83
   10.00    50.00      -2.63   -4.61   -0.50    0.16676    38.15  RIGHT     4.15137E-01    69.81    3.30582E-01    50.36
   15.00    50.00      -1.91   -2.39    0.87    0.24738    43.25  RIGHT     4.51011E-01    61.47    4.27222E-01    33.64
   20.00    50.00      -3.99   -2.65   -0.26    0.29607    50.29  RIGHT     3.54965E-01    50.35    4.14621E-01    16.92
   25.00    50.00     -14.06  -10.70   -9.05    0.16487    56.43  RIGHT     1.11443E-01    -5.98    1.63937E-01   -26.18
   30.00    50.00      -5.23   -2.71   -0.78    0.39862    56.44  RIGHT     3.07950E-01  -107.67    4.11586E-01  -153.48
   35.00    50.00      -4.89    0.54    1.63    0.35129    67.68  RIGHT     3.20025E-01  -125.77    5.98419E-01  -174.53
   40.00    50.00     -14.66  -11.42   -9.74    0.26034    57.04  RIGHT     1.04003E-01   105.51    1.50934E-01    74.06
   45.00    50.00      -5.80    2.57    3.16    0.29285    76.19  RIGHT     2.88380E-01    58.90    7.56227E-01     4.79
   50.00    50.00     -18.21  -11.79  -10.90    0.09282    64.88  RIGHT     6.90764E-02   -62.49    1.44691E-01   -76.18
   55.00    50.00      -8.95    3.85    4.08    0.18156    82.06  RIGHT     2.00528E-01  -126.11    8.76177E-01   179.96
   60.00    50.00     -15.16   -4.86   -4.47    0.25208    80.21  RIGHT     9.81205E-02    80.09    3.21482E-01    21.99
   65.00    50.00     -17.13    3.06    3.10    0.04962    85.18  RIGHT     7.82354E-02    24.19    7.99686E-01    -6.53
   70.00    50.00     -17.43    4.23    4.26    0.05859    86.66  RIGHT     7.56003E-02  -133.71    9.14624E-01  -179.05
   75.00    50.00     -22.23  -14.94  -14.20    0.16270    68.14  LEFT      4.34774E-02    98.39    1.00636E-01   124.19
   80.00    50.00     -17.18    5.29    5.31    0.06669    88.00  LEFT      7.78273E-02   -66.92    1.03359E+00    -4.45
   85.00    50.00     -16.18    5.10    5.13    0.08337    88.73  LEFT      8.72502E-02   102.48    1.01142E+00   177.69
   90.00    50.00    -999.99 -191.24 -191.15    0.00000     0.00            2.21926E-11   -83.59    1.54129E-10    -3.86
    0.00    60.00      -3.86  -11.18   -3.12    0.02396    23.27  LEFT      3.60348E-01    82.31    1.55224E-01    86.09
    5.00    60.00      -3.20   -9.83   -2.35    0.08552    24.63  RIGHT     3.89028E-01    77.91    1.81259E-01    65.10
   10.00    60.00      -1.73   -6.73   -0.54    0.19531    27.96  RIGHT     4.60669E-01    70.08    2.59146E-01    43.96
   15.00    60.00      -0.93   -4.05    0.79    0.29448    32.90  RIGHT     5.05052E-01    61.71    3.52647E-01    26.45
   20.00    60.00      -2.88   -4.00   -0.40    0.36733    40.18  RIGHT     4.03362E-01    50.66    3.54764E-01     9.92
   25.00    60.00     -12.68  -12.15   -9.40    0.26789    47.03  RIGHT     1.30521E-01    -2.20    1.38767E-01   -32.25
   30.00    60.00      -4.37   -3.56   -0.94    0.51532    49.65  RIGHT     3.39776E-01  -106.97    3.73251E-01  -161.85
   35.00    60.00      -3.78   -0.18    1.40    0.46261    63.66  RIGHT     3.63941E-01  -125.69    5.51007E-01   178.36
   40.00    60.00     -13.91  -12.22   -9.97    0.40711    52.78  RIGHT     1.13348E-01   110.73    1.37660E-01    65.36
   45.00    60.00      -4.75    2.09    2.90    0.37703    75.50  RIGHT     3.25346E-01    59.26    7.14988E-01    -1.86
   50.00    60.00     -17.19  -12.47  -11.21    0.22216    61.58  RIGHT     7.77289E-02   -53.95    1.33827E-01   -83.12
   55.00    60.00      -7.81    3.49    3.80    0.23300    81.97  RIGHT     2.28700E-01  -125.39    8.40140E-01   173.92
   60.00    60.00     -14.51   -5.16   -4.68    0.31485    82.51  RIGHT     1.05801E-01    85.31    3.10377E-01    15.59
   65.00    60.00     -15.46    2.76    2.82    0.07731    84.55  RIGHT     9.48709E-02    27.35    7.72516E-01   -12.08
   70.00    60.00     -16.58    3.97    4.01    0.07849    87.04  RIGHT     8.33984E-02  -127.72    8.87753E-01   175.39
   75.00    60.00     -21.54  -15.34  -14.41    0.06718    64.09  LEFT      4.71041E-02   109.12    9.61109E-02   118.86
   80.00    60.00     -17.38    5.05    5.08    0.06200    87.52  LEFT      7.60518E-02   -64.96    1.00573E+00    -9.73
   85.00    60.00     -16.41    4.87    4.91    0.08281    88.62  LEFT      8.49745E-02    98.49    9.85412E-01   172.41
   90.00    60.00    -999.99 -191.47 -191.37    0.00000     0.00            2.23038E-11   -85.09    1.50158E-10    -9.09
    0.00    70.00      -3.36  -15.86   -3.12    0.02396    13.27  LEFT      3.81774E-01    82.58    9.05217E-02    88.70
    5.00    70.00      -2.67  -13.86   -2.36    0.09604    14.51  RIGHT     4.13209E-01    78.13    1.14042E-01    56.35
   10.00    70.00      -1.16   -9.52   -0.57    0.21745    17.48  RIGHT     4.92162E-01    70.23    1.87895E-01    31.68
   15.00    70.00      -0.29   -6.04    0.73    0.33318    21.81  RIGHT     5.43552E-01    61.83    2.80558E-01    14.45
   20.00    70.00      -2.15   -5.53   -0.51    0.43317    28.58  RIGHT     4.38888E-01    50.86    2.97315E-01    -0.90
   25.00    70.00     -11.79  -13.83   -9.68    0.37834    36.06  RIGHT     1.44613E-01     0.57    1.14395E-01   -42.29
   30.00    70.00      -3.84   -4.33   -1.07    0.64736    41.10  RIGHT     3.61262E-01  -106.70    3.41711E-01  -172.74
   35.00    70.00      -3.05   -0.86    1.19    0.59492    60.58  RIGHT     3.95877E-01  -125.74    5.09394E-01   169.19
   40.00    70.00     -13.48  -12.85  -10.15    0.57201    49.08  RIGHT     1.19089E-01   114.17    1.27991E-01    54.37
   45.00    70.00      -4.08    1.65    2.68    0.46329    76.70  RIGHT     3.51676E-01    59.29    6.80184E-01    -9.93
   50.00    70.00     -16.53  -13.05  -11.44    0.35856    59.77  RIGHT     8.38101E-02   -48.50    1.25134E-01   -91.91
   55.00    70.00      -7.08    3.17    3.56    0.28102    82.89  RIGHT     2.48811E-01  -125.15    8.09828E-01   166.77
   60.00    70.00     -14.12   -5.40   -4.85    0.35936    85.88  RIGHT     1.10668E-01    88.42    3.02050E-01     8.28
   65.00    70.00     -14.42    2.50    2.58    0.10454    84.46  RIGHT     1.06899E-01    29.12    7.49401E-01   -18.59
   70.00    70.00     -16.04    3.75    3.79    0.09409    87.67  RIGHT     8.87415E-02  -124.20    8.65564E-01   168.98
   75.00    70.00     -21.03  -15.69  -14.58    0.02479    61.62  RIGHT     4.99222E-02   115.80    9.23104E-02   112.41
   80.00    70.00     -17.60    4.85    4.87    0.05645    87.13  LEFT      7.41440E-02   -64.39    9.82306E-01   -15.82
   85.00    70.00     -16.55    4.68    4.71    0.08247    88.45  LEFT      8.36207E-02    94.35    9.63724E-01   166.36
   90.00    70.00    -999.99 -191.66 -191.56    0.00000     0.00            2.23366E-11   -87.06    1.46828E-10   -15.10
    0.00    80.00      -3.14  -27.29   -3.12    0.02396     3.27  LEFT      3.91606E-01    82.82    2.42826E-02   105.63
    5.00    80.00      -2.43  -20.30   -2.36    0.10291     4.35  RIGHT     4.24811E-01    78.29    5.43402E-02    24.28
   10.00    80.00      -0.87  -12.56   -0.59    0.23168     6.77  RIGHT     5.08647E-01    70.29    1.32353E-01     5.84
   15.00    80.00       0.05   -7.93    0.69    0.35897    10.03  RIGHT     5.65326E-01    61.87    2.25767E-01    -5.54
   20.00    80.00      -1.73   -6.94   -0.59    0.48296    15.15  RIGHT     4.60456E-01    51.02    2.52775E-01   -17.16
   25.00    80.00     -11.30  -15.44   -9.88    0.48484    22.10  RIGHT     1.53145E-01     2.85    9.50334E-02   -58.34
   30.00    80.00      -3.60   -4.81   -1.15    0.78884    26.64  RIGHT     3.71673E-01  -106.74    3.23071E-01   174.12
   35.00    80.00      -2.64   -1.37    1.05    0.75102    60.76  RIGHT     4.14844E-01  -125.85    4.80417E-01   158.05
   40.00    80.00     -13.38  -13.14  -10.25    0.76129    47.89  RIGHT     1.20513E-01   116.38    1.23792E-01    41.75
   45.00    80.00      -3.72    1.35    2.53    0.53640    80.90  RIGHT     3.66511E-01    59.10    6.57100E-01   -19.18
   50.00    80.00     -16.28  -13.42  -11.61    0.49741    60.93  RIGHT     8.62443E-02   -44.95    1.19955E-01  -102.23
   55.00    80.00      -6.69    2.95    3.40    0.31759    84.95  RIGHT     2.60175E-01  -125.21    7.89515E-01   158.74
   60.00    80.00     -14.02   -5.52   -4.95    0.37603    89.82  RIGHT     1.11944E-01    89.97    2.97693E-01     0.37
   65.00    80.00     -13.88    2.31    2.41    0.12771    84.96  RIGHT     1.13795E-01    30.19    7.33421E-01   -25.85
   70.00    80.00     -15.83    3.60    3.65    0.10334    88.47  RIGHT     9.08504E-02  -122.42    8.51029E-01   161.94
   75.00    80.00     -20.87  -15.94  -14.73    0.10924    60.87  RIGHT     5.08364E-02   119.60    8.96953E-02   105.02
   80.00    80.00     -17.85    4.70    4.73    0.05046    86.86  LEFT      7.20049E-02   -65.29    9.66366E-01   -22.51
   85.00    80.00     -16.60    4.55    4.58    0.08199    88.23  LEFT      8.31901E-02    90.28    9.49178E-01   159.74
   90.00    80.00    -999.99 -191.80 -191.69    0.00000     0.00            2.22930E-11   -89.45    1.44569E-10   -21.69
    0.00    90.00      -3.19  -21.58   -3.12    0.02396    -6.73  LEFT      3.89548E-01    83.06    4.68831E-02  -108.58
    5.00    90.00      -2.46  -19.10   -2.37    0.10585    -5.85  RIGHT     4.23477E-01    78.40    6.23931E-02   -55.06
   10.00    90.00      -0.85  -12.99   -0.60    0.23694    -4.08  RIGHT     5.09613E-01    70.30    1.26072E-01   -35.48
   15.00    90.00       0.11   -8.53    0.67    0.36785    -2.19  RIGHT     5.69700E-01    61.87    2.10670E-01   -33.26
   20.00    90.00      -1.60   -7.58   -0.63    0.50261     0.20  RIGHT     4.67409E-01    51.18    2.34929E-01   -38.53
   25.00    90.00     -11.15  -16.23   -9.97    0.55383     3.56  RIGHT     1.55806E-01     4.96    8.67799E-02   -80.61
   30.00    90.00      -3.62   -4.85   -1.18    0.85990   -10.19  RIGHT     3.70645E-01  -107.02    3.21785E-01   159.96
   35.00    90.00      -2.53   -1.56    0.99    0.89115    82.89  RIGHT     4.20250E-01  -125.97    4.69907E-01   145.65
   40.00    90.00     -13.62  -12.99  -10.28    0.92803    81.68  RIGHT     1.17260E-01   117.69    1.25958E-01    28.92
   45.00    90.00      -3.65    1.26    2.47    0.56777    88.21  RIGHT     3.69359E-01    58.78    6.49659E-01   -29.09
   50.00    90.00     -16.46  -13.47  -11.70    0.61145    68.32  RIGHT     8.44891E-02   -42.62    1.19219E-01  -113.25
   55.00    90.00      -6.62    2.87    3.33    0.33337    87.86  RIGHT     2.62399E-01  -125.44    7.82291E-01   150.23
   60.00    90.00     -14.23   -5.52   -4.97    0.36212   -86.67  RIGHT     1.09244E-01    90.20    2.97938E-01    -7.71
   65.00    90.00     -13.76    2.23    2.34    0.14241    86.01  RIGHT     1.15276E-01    30.93    7.26837E-01   -33.53
   70.00    90.00     -15.98    3.55    3.60    0.10487    89.30  RIGHT     8.93349E-02  -121.97    8.46163E-01   154.59
   75.00    90.00     -21.14  -16.05  -14.88    0.17916    62.11  RIGHT     4.92872E-02   121.20    8.86212E-02    97.08
   80.00    90.00     -18.14    4.65    4.67    0.04480    86.73  LEFT      6.96848E-02   -67.78    9.60051E-01   -29.52
   85.00    90.00     -16.55    4.50    4.53    0.08105    87.95  LEFT      8.36288E-02    86.50    9.43713E-01   152.82
   90.00    90.00    -999.99 -191.85 -191.75    0.00000     0.00            2.21807E-11   -92.19    1.43682E-10   -28.59
    0.00   100.00      -3.50  -13.92   -3.12    0.02396   -16.73  LEFT      3.75659E-01    83.32    1.13249E-01  -101.66
    5.00   100.00      -2.76  -13.04   -2.37    0.10478   -16.06  RIGHT     4.09245E-01    78.48    1.25294E-01   -79.79
   10.00   100.00      -1.11  -10.14   -0.59    0.23284   -14.93  RIGHT     4.95024E-01    70.27    1.74901E-01   -65.05
   15.00   100.00      -0.09   -7.24    0.68    0.35818   -14.40  RIGHT     5.56534E-01    61.85    2.44254E-01   -58.54
   20.00   100.00      -1.75   -6.99   -0.61    0.48405   -14.83  RIGHT     4.59535E-01    51.39    2.51492E-01   -59.99
   25.00   100.00     -11.33  -15.58   -9.95    0.53880   -17.22  RIGHT     1.52510E-01     7.14    9.35070E-02  -103.29
   30.00   100.00      -3.92   -4.42   -1.15    0.75091   -39.03  RIGHT     3.58184E-01  -107.52    3.38069E-01   146.62
   35.00   100.00      -2.70   -1.37    1.02    0.78472   -64.88  RIGHT     4.11926E-01  -126.06    4.80156E-01   133.28
   40.00   100.00     -14.23  -12.46  -10.25    0.75686   -68.80  RIGHT     1.09240E-01   118.22    1.33867E-01    17.44
   45.00   100.00      -3.87    1.38    2.52    0.53831   -84.41  RIGHT     3.60108E-01    58.37    6.59096E-01   -38.91
   50.00   100.00     -17.12  -13.20  -11.72    0.62474    82.37  RIGHT     7.83303E-02   -41.15    1.23024E-01  -123.83
   55.00   100.00      -6.85    2.95    3.38    0.32324   -89.11  RIGHT     2.55387E-01  -125.78    7.89191E-01   141.76
   60.00   100.00     -14.78   -5.38   -4.91    0.32499   -84.53  RIGHT     1.02503E-01    89.13    3.02673E-01   -15.51
   65.00   100.00     -14.07    2.27    2.37    0.14518    87.36  RIGHT     1.11260E-01    31.57    7.30535E-01   -41.22
   70.00   100.00     -16.50    3.61    3.65    0.09875    89.99  RIGHT     8.40882E-02  -122.78    8.51542E-01   147.30
   75.00   100.00     -21.92  -15.99  -15.00    0.22178    65.46  RIGHT     4.50655E-02   120.78    8.92404E-02    89.09
   80.00   100.00     -18.42    4.68    4.71    0.04037    86.73  LEFT      6.74031E-02   -71.93    9.64119E-01   -36.52
   85.00   100.00     -16.43    4.54    4.57    0.07942    87.64  LEFT      8.48422E-02    83.19    9.47963E-01   145.92
   90.00   100.00    -999.99 -191.81 -191.71    0.00000     0.00            2.20132E-11   -95.23    1.44270E-10   -35.47
    0.00   110.00      -4.11  -10.06   -3.12    0.02396   -26.73  LEFT      3.50365E-01    83.59    1.76606E-01   -99.82
    5.00   110.00      -3.34   -9.32   -2.37    0.09976   -26.24  RIGHT     3.82542E-01    78.55    1.92185E-01   -87.19
   10.00   110.00      -1.64   -7.23   -0.58    0.21982   -25.67  RIGHT     4.65319E-01    70.21    2.44539E-01   -79.18
   15.00   110.00      -0.57   -5.23    0.70    0.33164   -26.19  RIGHT     5.26223E-01    61.83    3.08052E-01   -74.91
   20.00   110.00      -2.19   -5.60   -0.56    0.43349   -28.42  RIGHT     4.37083E-01    51.69    2.95026E-01   -76.41
   25.00   110.00     -11.87  -14.02   -9.80    0.44830   -34.30  RIGHT     1.43402E-01     9.64    1.11940E-01  -120.04
   30.00   110.00      -4.51   -3.69   -1.07    0.61502   -51.01  RIGHT     3.34669E-01  -108.22    3.67740E-01   135.47
   35.00   110.00      -3.17   -0.87    1.14    0.62233   -62.97  RIGHT     3.90130E-01  -126.05    5.08624E-01   122.22
   40.00   110.00     -15.30  -11.73  -10.14    0.57844   -70.71  RIGHT     9.65871E-02   117.92    1.45752E-01     8.19
   45.00   110.00      -4.39    1.70    2.65    0.46616   -80.11  RIGHT     3.39030E-01    57.93    6.83451E-01   -47.93
   50.00   110.00     -18.37  -12.68  -11.64    0.51821   -88.13  RIGHT     6.77910E-02   -40.38    1.30577E-01  -133.02
   55.00   110.00      -7.42    3.16    3.52    0.29057   -86.79  RIGHT     2.39340E-01  -126.17    8.08862E-01   133.84
   60.00   110.00     -15.73   -5.14   -4.78    0.27648   -84.01  RIGHT     9.19554E-02    86.50    3.11077E-01   -22.63
   65.00   110.00     -14.84    2.43    2.51    0.13513    88.73  RIGHT     1.01854E-01    32.33    7.43773E-01   -48.52
   70.00   110.00     -17.47    3.75    3.79    0.08661   -89.60  RIGHT     7.52583E-02  -125.05    8.66153E-01   140.42
   75.00   110.00     -23.35  -15.77  -15.07    0.22058    70.36  RIGHT     3.82529E-02   117.79    9.14538E-02    81.57
   80.00   110.00     -18.67    4.81    4.83    0.03793    86.84  LEFT      6.55489E-02   -77.76    9.77761E-01   -43.18
   85.00   110.00     -16.24    4.66    4.69    0.07708    87.32  LEFT      8.67149E-02    80.49    9.61098E-01   139.38
   90.00   110.00    -999.99 -191.70 -191.60    0.00000     0.00            2.18074E-11   -98.48    1.46218E-10   -42.02
    0.00   120.00      -5.05   -7.59   -3.12    0.02396   -36.73  LEFT      3.14434E-01    83.93    2.34683E-01   -98.94
    5.00   120.00      -4.26   -6.87   -2.36    0.09104   -36.39  RIGHT     3.44178E-01    78.61    2.55016E-01   -90.51
   10.00   120.00      -2.50   -5.00   -0.56    0.19896   -36.19  RIGHT     4.21397E-01    70.13    3.16180E-01   -86.38
   15.00   120.00      -1.38   -3.36    0.75    0.29226   -37.28  RIGHT     4.79684E-01    61.85    3.81826E-01   -84.60
   20.00   120.00      -2.94   -4.08   -0.46    0.36470   -40.11  RIGHT     4.00756E-01    52.16    3.51676E-01   -87.35
   25.00   120.00     -12.80  -12.33   -9.55    0.32985   -46.89  RIGHT     1.28870E-01    12.85    1.35905E-01  -130.58
   30.00   120.00      -5.43   -2.86   -0.95    0.49413   -59.16  RIGHT     3.00834E-01  -109.20    4.04686E-01   126.84
   35.00   120.00      -3.98   -0.20    1.32    0.48186   -65.54  RIGHT     3.55543E-01  -125.87    5.49333E-01   113.14
   40.00   120.00     -16.97  -10.94   -9.97    0.42762   -75.23  RIGHT     7.96581E-02   116.47    1.59557E-01     1.24
   45.00   120.00      -5.26    2.13    2.86    0.38008   -78.84  RIGHT     3.06769E-01    57.47    7.18326E-01   -55.68
   50.00   120.00     -20.50  -12.04  -11.46    0.37018   -85.68  RIGHT     5.30891E-02   -40.43    1.40569E-01  -140.37
   55.00   120.00      -8.36    3.47    3.74    0.24419   -85.55  RIGHT     2.14744E-01  -126.56    8.37983E-01   126.84
   60.00   120.00     -17.13   -4.85   -4.60    0.22628   -84.92  RIGHT     7.82214E-02    81.50    3.21839E-01   -28.79
   65.00   120.00     -16.17    2.67    2.72    0.11424    89.84  RIGHT     8.73536E-02    33.51    7.64394E-01   -55.07
   70.00   120.00     -18.97    3.97    3.99    0.07088   -89.56  RIGHT     6.32930E-02  -129.54    8.87650E-01   134.24
   75.00   120.00     -25.65  -15.45  -15.05    0.16674    75.40  RIGHT     2.93353E-02   110.04    9.49419E-02    74.93
   80.00   120.00     -18.79    4.99    5.01    0.03785    86.99  LEFT      6.46410E-02   -85.11    9.98800E-01   -49.21
   85.00   120.00     -16.00    4.84    4.87    0.07420    87.00  LEFT      8.91312E-02    78.48    9.81025E-01   133.46
   90.00   120.00    -999.99 -191.52 -191.43    0.00000     0.00            2.15829E-11  -101.87    1.49214E-10   -47.95
    0.00   130.00      -6.40   -5.88   -3.12    0.02396   -46.73  LEFT      2.68964E-01    84.36    2.85664E-01   -98.39
    5.00   130.00      -5.59   -5.15   -2.35    0.07899   -46.48  RIGHT     2.95318E-01    78.67    3.10802E-01   -92.28
   10.00   130.00      -3.76   -3.35   -0.54    0.17175   -46.45  RIGHT     3.64591E-01    70.02    3.82410E-01   -90.46
   15.00   130.00      -2.57   -1.86    0.81    0.24451   -47.64  RIGHT     4.18332E-01    61.93    4.54067E-01   -90.49
   20.00   130.00      -4.08   -2.73   -0.34    0.28887   -50.25  RIGHT     3.51693E-01    52.92    4.10794E-01   -94.42
   25.00   130.00     -14.20  -10.86   -9.21    0.21012   -56.80  RIGHT     1.09607E-01    17.42    1.60960E-01  -136.95
   30.00   130.00      -6.77   -2.07   -0.80    0.38937   -66.08  RIGHT     2.57766E-01  -110.60    4.43177E-01   120.47
   35.00   130.00      -5.19    0.50    1.54    0.36237   -69.25  RIGHT     3.09250E-01  -125.41    5.95409E-01   106.13
   40.00   130.00     -19.57  -10.21   -9.74    0.29755   -80.55  RIGHT     5.90874E-02   112.70    1.73500E-01    -3.70
   45.00   130.00      -6.56    2.60    3.10    0.29562   -79.48  RIGHT     2.64313E-01    57.00    7.58291E-01   -61.99
   50.00   130.00     -24.21  -11.38  -11.16    0.22123   -86.75  RIGHT     3.46286E-02   -42.20    1.51627E-01  -145.88
   55.00   130.00      -9.78    3.81    4.00    0.19247   -85.33  RIGHT     1.82351E-01  -126.92    8.72175E-01   120.97
   60.00   130.00     -19.07   -4.54   -4.39    0.17990   -86.93  RIGHT     6.26000E-02    72.21    3.33458E-01   -33.86
   65.00   130.00     -18.32    2.95    2.98    0.08592   -89.45  RIGHT     6.82475E-02    35.70    7.89359E-01   -60.67
   70.00   130.00     -21.16    4.21    4.22    0.05381   -89.86  RIGHT     4.91736E-02  -138.34    9.12892E-01   128.97
   75.00   130.00     -28.99  -15.06  -14.89    0.06817    79.27  RIGHT     1.99786E-02    89.94    9.92559E-02    69.41
   80.00   130.00     -18.71    5.21    5.23    0.04009    87.17  LEFT      6.52236E-02   -93.53    1.02417E+00   -54.41
   85.00   130.00     -15.72    5.04    5.08    0.07107    86.70  LEFT      9.19896E-02    77.19    1.00484E+00   128.35
   90.00   130.00    -999.99 -191.31 -191.23    0.00000     0.00            2.13589E-11  -105.30    1.52823E-10   -53.08
    0.00   140.00      -8.34   -4.68   -3.12    0.02396   -56.73  LEFT      2.15343E-01    84.99    3.27983E-01   -98.00
    5.00   140.00      -7.49   -3.93   -2.35    0.06406   -56.51  RIGHT     2.37444E-01    78.74    3.57521E-01   -93.30
   10.00   140.00      -5.55   -2.14   -0.51    0.13973   -56.43  RIGHT     2.96627E-01    69.88    4.39331E-01   -92.93
   15.00   140.00      -4.27   -0.70    0.88    0.19206   -57.36  RIGHT     3.44035E-01    62.12    5.18423E-01   -94.18
   20.00   140.00      -5.71   -1.64   -0.20    0.21215   -59.29  RIGHT     2.91460E-01    54.19    4.65703E-01   -98.98
   25.00   140.00     -16.23   -9.68   -8.81    0.09731   -65.26  RIGHT     8.67939E-02    24.79    1.84482E-01  -140.72
   30.00   140.00      -8.68   -1.40   -0.65    0.29790   -72.48  RIGHT     2.06902E-01  -112.78    4.78709E-01   115.92
   35.00   140.00      -6.95    1.14    1.76    0.25928   -73.37  RIGHT     2.52719E-01  -124.42    6.40770E-01   100.96
   40.00   140.00     -23.82   -9.60   -9.44    0.18316   -86.26  RIGHT     3.62087E-02   101.95    1.86228E-01    -6.98
   45.00   140.00      -8.43    3.04    3.34    0.21788   -81.23  RIGHT     2.12964E-01    56.52    7.98077E-01   -66.87
   50.00   140.00     -32.56  -10.78  -10.75    0.08103   -89.52  RIGHT     1.32417E-02   -53.93    1.62575E-01  -149.73
   55.00   140.00     -11.88    4.15    4.26    0.14058   -85.89  RIGHT     1.43152E-01  -127.22    9.06909E-01   116.31
   60.00   140.00     -21.36   -4.25   -4.17    0.13946   -89.70  RIGHT     4.80746E-02    54.27    3.44494E-01   -37.81
   65.00   140.00     -21.88    3.23    3.24    0.05340   -89.12  RIGHT     4.52979E-02    40.76    8.15368E-01   -65.21
   70.00   140.00     -24.02    4.45    4.46    0.03690    89.55  RIGHT     3.53932E-02  -157.20    9.38531E-01   124.69
   75.00   140.00     -30.62  -14.66  -14.56    0.05847    81.58  LEFT      1.65453E-02    43.04    1.03917E-01    65.08
   80.00   140.00     -18.39    5.43    5.45    0.04438    87.32  LEFT      6.77030E-02  -102.31    1.05051E+00   -58.67
   85.00   140.00     -15.42    5.25    5.29    0.06797    86.41  LEFT      9.52092E-02    76.62    1.02938E+00   124.17
   90.00   140.00    -999.99 -191.10 -191.03    0.00000     0.00            2.11525E-11  -108.68    1.56565E-10   -57.29
    0.00   150.00     -11.18   -3.86   -3.12    0.02396   -66.73  LEFT      1.55224E-01    86.09    3.60348E-01   -97.69
    5.00   150.00     -10.27   -3.10   -2.34    0.04678   -66.47  RIGHT     1.72313E-01    78.83    3.93622E-01   -93.87
   10.00   150.00      -8.17   -1.29   -0.48    0.10428   -66.17  RIGHT     2.19569E-01    69.65    4.84405E-01   -94.43
   15.00   150.00      -6.73    0.13    0.95    0.13736   -66.58  RIGHT     2.59055E-01    62.53    5.70978E-01   -96.48
   20.00   150.00      -8.07   -0.81   -0.06    0.13712   -67.61  RIGHT     2.22063E-01    56.48    5.12192E-01  -101.88
   25.00   150.00     -19.03   -8.77   -8.38    0.00720   -72.95  LEFT      6.28345E-02    38.70    2.04877E-01  -142.78
   30.00   150.00     -11.47   -0.88   -0.52    0.21661   -78.61  RIGHT     1.50130E-01  -116.75    5.08013E-01   112.83
   35.00   150.00      -9.52    1.66    1.98    0.16838   -77.66  RIGHT     1.87812E-01  -122.37    6.80667E-01    97.32
   40.00   150.00     -30.03   -9.12   -9.08    0.08117    87.77  RIGHT     1.77109E-02    55.69    1.96788E-01    -8.89
   45.00   150.00     -11.23    3.42    3.56    0.14731   -83.60  RIGHT     1.54289E-01    55.93    8.33231E-01   -70.42
   50.00   150.00     -32.73  -10.26  -10.24    0.04877    86.72  LEFT      1.29841E-02   167.29    1.72513E-01  -152.16
   55.00   150.00     -15.14    4.45    4.49    0.09078   -87.00  RIGHT     9.83369E-02  -127.46    9.38142E-01   112.81
   60.00   150.00     -22.64   -4.03   -3.97    0.10491    86.99  RIGHT     4.15010E-02    23.05    3.53723E-01   -40.67
   65.00   150.00     -28.79    3.48    3.48    0.01893   -89.12  RIGHT     2.04479E-02    60.32    8.39347E-01   -68.67
   70.00   150.00     -25.71    4.66    4.66    0.02085    88.74  RIGHT     2.91225E-02   164.96    9.61480E-01   121.44
   75.00   150.00     -26.73  -14.29  -14.05    0.19916    82.50  LEFT      2.58964E-02     3.93    1.08489E-01    61.95
   80.00   150.00     -17.83    5.63    5.65    0.05035    87.45  LEFT      7.22022E-02  -110.62    1.07462E+00   -61.95
   85.00   150.00     -15.11    5.44    5.48    0.06518    86.13  LEFT      9.87294E-02    76.72    1.05165E+00   120.95
   90.00   150.00    -999.99 -190.92 -190.84    0.00000     0.00            2.09764E-11  -111.91    1.59984E-10   -60.53
    0.00   160.00     -15.86   -3.36   -3.12    0.02396   -76.73  LEFT      9.05217E-02    88.70    3.81774E-01   -97.42
    5.00   160.00     -14.83   -2.58   -2.33    0.02769   -76.38  RIGHT     1.01904E-01    78.96    4.17951E-01   -94.13
   10.00   160.00     -12.34   -0.75   -0.46    0.06656   -75.71  RIGHT     1.35766E-01    69.12    5.15883E-01   -95.26
   15.00   160.00     -10.60    0.70    1.01    0.08181   -75.43  RIGHT     1.65998E-01    63.50    6.09155E-01   -97.82
   20.00   160.00     -11.70   -0.23    0.07    0.06446   -75.47  RIGHT     1.46158E-01    61.49    5.47514E-01  -103.59
   25.00   160.00     -22.05   -8.11   -7.93    0.10402   -80.25  LEFT      4.43972E-02    68.61    2.21132E-01  -143.61
   30.00   160.00     -15.87   -0.53   -0.41    0.14260   -84.60  RIGHT     9.04591E-02  -126.31    5.28843E-01   110.93
   35.00   160.00     -13.64    2.05    2.16    0.08604   -82.03  RIGHT     1.16980E-01  -117.28    7.11662E-01    94.97
   40.00   160.00     -25.43   -8.78   -8.69    0.01056    81.65  LEFT      3.00876E-02   -13.83    2.04566E-01    -9.63
   45.00   160.00     -15.91    3.70    3.74    0.08259   -86.32  RIGHT     9.00807E-02    54.83    8.60344E-01   -72.79
   50.00   160.00     -23.16   -9.85   -9.66    0.16807    82.26  LEFT      3.90644E-02   154.30    1.80808E-01  -153.34
   55.00   160.00     -21.15    4.67    4.68    0.04344   -88.45  RIGHT     4.92572E-02  -127.73    9.62647E-01   110.44
   60.00   160.00     -21.03   -3.87   -3.78    0.07497    83.35  RIGHT     4.99372E-02    -9.23    3.60225E-01   -42.47
   65.00   160.00     -30.38    3.68    3.68    0.01628   -89.35  LEFT      1.70212E-02   164.17    8.58756E-01   -71.06
   70.00   160.00     -23.29    4.82    4.83    0.00570    87.77  RIGHT     3.85075E-02   127.55    9.79211E-01   119.21
   75.00   160.00     -22.59  -13.97  -13.41    0.34548    82.31  LEFT      4.17267E-02   -11.38    1.12616E-01    59.94
   80.00   160.00     -17.10    5.78    5.80    0.05769    87.55  LEFT      7.85301E-02  -117.84    1.09384E+00   -64.23
   85.00   160.00     -14.78    5.58    5.62    0.06291    85.86  LEFT      1.02503E-01    77.44    1.06914E+00   118.71
   90.00   160.00    -999.99 -190.77 -190.70    0.00000     0.00            2.08377E-11  -114.87    1.62698E-10   -62.79
    0.00   170.00     -27.29   -3.14   -3.12    0.02396   -86.73  LEFT      2.42826E-02   105.63    3.91606E-01   -97.18
    5.00   170.00     -25.95   -2.33   -2.32    0.00734   -86.25  RIGHT     2.83563E-02    79.44    4.29746E-01   -94.15
   10.00   170.00     -21.41   -0.47   -0.43    0.02744   -85.11  RIGHT     4.78174E-02    66.49    5.32627E-01   -95.58
   15.00   170.00     -18.37    1.01    1.06    0.02611   -84.05  RIGHT     6.78455E-02    67.36    6.31310E-01   -98.42
   20.00   170.00     -18.20    0.12    0.18    0.00608   -83.09  LEFT      6.91935E-02    78.55    5.69915E-01  -104.37
   25.00   170.00     -21.67   -7.67   -7.50    0.19415   -87.40  LEFT      4.63767E-02   113.88    2.32619E-01  -143.48
   30.00   170.00     -22.99   -0.35   -0.33    0.07324    89.49  RIGHT     3.98308E-02  -166.90    5.39799E-01   110.06
   35.00   170.00     -21.73    2.29    2.30    0.00913   -86.43  RIGHT     4.60887E-02   -94.62    7.31469E-01    93.74
   40.00   170.00     -19.77   -8.59   -8.27    0.09353    75.44  LEFT      5.77286E-02   -30.51    2.09235E-01    -9.31
   45.00   170.00     -27.97    3.86    3.87    0.02181   -89.23  RIGHT     2.24657E-02    47.54    8.77086E-01   -74.05
   50.00   170.00     -18.50   -9.56   -9.04    0.27676    77.20  LEFT      6.68541E-02   152.36    1.87066E-01  -153.43
   55.00   170.00     -46.56    4.81    4.81    0.00202    89.90  LEFT      2.64202E-03    60.70    9.78138E-01   109.14
   60.00   170.00     -18.16   -3.79   -3.63    0.04770    79.50  RIGHT     6.95283E-02   -28.30    3.63405E-01   -43.24
   65.00   170.00     -21.87    3.81    3.82    0.05179   -89.72  LEFT      4.53456E-02  -167.81    8.71733E-01   -72.43
   70.00   170.00     -19.77    4.91    4.93    0.00890    86.70  LEFT      5.77631E-02   109.17    9.89911E-01   117.98
   75.00   170.00     -19.46  -13.71  -12.68    0.49300    81.14  LEFT      5.98206E-02   -17.85    1.16039E-01    59.00
   80.00   170.00     -16.28    5.88    5.90    0.06614    87.63  LEFT      8.62710E-02  -123.69    1.10619E+00   -65.53
   85.00   170.00     -14.45    5.67    5.71    0.06136    85.59  LEFT      1.06486E-01    78.70    1.08004E+00   117.45
   90.00   170.00    -999.99 -190.68 -190.61    0.00000     0.00            2.07374E-11  -117.47    1.64426E-10   -64.07
    0.00   180.00     -21.58   -3.19   -3.12    0.02396    83.27  LEFT      4.68831E-02  -108.58    3.89548E-01   -96.94
    5.00   180.00     -21.72   -2.36   -2.31    0.01372    83.91  LEFT      4.60997E-02  -101.34    4.28649E-01   -93.93
   10.00   180.00     -22.53   -0.45   -0.42    0.01237    85.56  LEFT      4.20165E-02  -104.55    5.34068E-01   -95.45
   15.00   180.00     -24.34    1.08    1.09    0.02945    87.43  LEFT      3.41319E-02  -131.76    6.36573E-01   -98.37
   20.00   180.00     -22.15    0.25    0.27    0.07515    89.40  LEFT      4.38855E-02   173.49    5.78436E-01  -104.34
   25.00   180.00     -18.19   -7.43   -7.08    0.27846    85.40  LEFT      6.92584E-02   142.33    2.39022E-01  -142.49
   30.00   180.00     -19.35   -0.35   -0.29    0.00609    83.61  RIGHT     6.05863E-02   113.30    5.40221E-01   110.15
   35.00   180.00     -21.13    2.37    2.39    0.06513    89.14  LEFT      4.93756E-02    16.42    7.38819E-01    93.53
   40.00   180.00     -16.17   -8.52   -7.83    0.16894    69.20  LEFT      8.74301E-02   -35.63    2.10724E-01    -7.98
   45.00   180.00     -21.47    3.91    3.93    0.03710    87.77  LEFT      4.74453E-02  -117.98    8.82164E-01   -74.28
   50.00   180.00     -15.43   -9.37   -8.41    0.37440    71.52  LEFT      9.51707E-02   152.13    1.91107E-01  -152.49
   55.00   180.00     -20.08    4.86    4.87    0.04666    88.16  LEFT      5.57315E-02    53.35    9.83308E-01   108.86
   60.00   180.00     -15.56   -3.80   -3.52    0.02094    75.57  RIGHT     9.37372E-02   -38.04    3.63011E-01   -43.00
   65.00   180.00     -17.28    3.86    3.90    0.08759    89.87  LEFT      7.68551E-02  -161.27    8.77163E-01   -72.78
   70.00   180.00     -16.89    4.94    4.97    0.02356    85.57  LEFT      8.03872E-02   100.72    9.92558E-01   117.74
   75.00   180.00     -17.07  -13.52  -11.93    0.63914    78.76  LEFT      7.87429E-02   -20.90    1.18594E-01    59.07
   80.00   180.00     -15.45    5.91    5.94    0.07554    87.71  LEFT      9.49097E-02  -128.14    1.11051E+00   -65.85
   85.00   180.00     -14.12    5.70    5.74    0.06069    85.30  LEFT      1.10628E-01    80.42    1.08327E+00   117.17
   90.00   180.00    -999.99 -190.65 -190.58    0.00000     0.00            2.06704E-11  -119.62    1.65002E-10   -64.38
    0.00   190.00     -13.92   -3.50   -3.12    0.02396    73.27  LEFT      1.13249E-01  -101.66    3.75659E-01   -96.68
    5.00   190.00     -13.47   -2.64   -2.30    0.03495    74.08  LEFT      1.19196E-01  -101.02    4.14712E-01   -93.46
   10.00   190.00     -12.70   -0.68   -0.41    0.05226    76.23  LEFT      1.30301E-01  -107.64    5.20188E-01   -94.86
   15.00   190.00     -12.49    0.92    1.11    0.08481    78.91  LEFT      1.33436E-01  -122.03    6.24803E-01   -97.68
   20.00   190.00     -13.70    0.16    0.34    0.14350    81.86  LEFT      1.16064E-01  -149.80    5.72828E-01  -103.55
   25.00   190.00     -15.03   -7.38   -6.69    0.35742    78.00  LEFT      9.96546E-02   155.73    2.40309E-01  -140.67
   30.00   190.00     -13.44   -0.51   -0.29    0.06118    77.74  LEFT      1.19655E-01    94.72    5.30141E-01   111.20
   35.00   190.00     -13.22    2.31    2.43    0.13936    84.71  LEFT      1.22713E-01    37.19    7.33379E-01    94.32
   40.00   190.00     -13.64   -8.59   -7.41    0.23790    62.97  LEFT      1.16930E-01   -37.56    2.09211E-01    -5.64
   45.00   190.00     -13.69    3.84    3.92    0.09627    84.77  LEFT      1.16278E-01  -120.43    8.75289E-01   -73.48
   50.00   190.00     -13.19   -9.29   -7.81    0.46026    65.18  LEFT      1.23145E-01   152.54    1.92945E-01  -150.59
   55.00   190.00     -14.29    4.81    4.86    0.09170    86.43  LEFT      1.08496E-01    53.53    9.77824E-01   109.60
   60.00   190.00     -13.47   -3.89   -3.44    0.00747    71.64  LEFT      1.19217E-01   -43.19    3.59126E-01   -41.76
   65.00   190.00     -14.28    3.84    3.91    0.12385    89.49  LEFT      1.08604E-01  -158.12    8.74690E-01   -72.14
   70.00   190.00     -14.68    4.89    4.94    0.03899    84.42  LEFT      1.03779E-01    96.50    9.86938E-01   118.49
   75.00   190.00     -15.20  -13.40  -11.20    0.78098    73.84  LEFT      9.76689E-02   -22.30    1.20213E-01    60.09
   80.00   190.00     -14.66    5.88    5.92    0.08576    87.81  LEFT      1.03922E-01  -131.32    1.10647E+00   -65.20
   85.00   190.00     -13.79    5.66    5.71    0.06113    85.02  LEFT      1.14862E-01    82.52    1.07857E+00   117.85
   90.00   190.00    -999.99 -190.68 -190.61    0.00000     0.00            2.06269E-11  -121.24    1.64380E-10   -63.73
    0.00   200.00     -10.06   -4.11   -3.12    0.02396    63.27  LEFT      1.76606E-01   -99.82    3.50365E-01   -96.41
    5.00   200.00      -9.48   -3.21   -2.29    0.05581    64.23  LEFT      1.88715E-01  -100.84    3.88398E-01   -92.70
   10.00   200.00      -8.36   -1.17   -0.41    0.09164    66.85  LEFT      2.14793E-01  -108.09    4.91528E-01   -93.75
   15.00   200.00      -7.78    0.52    1.11    0.13984    70.26  LEFT      2.29489E-01  -120.45    5.96585E-01   -96.29
   20.00   200.00      -9.16   -0.14    0.38    0.21176    74.13  LEFT      1.95904E-01  -142.05    5.53545E-01  -101.93
   25.00   200.00     -12.62   -7.51   -6.35    0.43097    70.18  LEFT      1.31431E-01   163.10    2.36736E-01  -137.98
   30.00   200.00      -9.90   -0.84   -0.33    0.13081    71.85  LEFT      1.79942E-01    89.08    5.10285E-01   113.29
   35.00   200.00      -9.09    2.10    2.41    0.21609    80.27  LEFT      1.97327E-01    42.44    7.15733E-01    96.12
   40.00   200.00     -11.77   -8.76   -7.00    0.30157    56.78  LEFT      1.45065E-01   -38.15    2.05111E-01    -2.25
   45.00   200.00      -9.77    3.66    3.86    0.15778    81.85  LEFT      1.82590E-01  -120.70    8.57164E-01   -71.63
   50.00   200.00     -11.48   -9.30   -7.24    0.53342    58.11  LEFT      1.49941E-01   153.30    1.92775E-01  -147.73
   55.00   200.00     -10.95    4.67    4.79    0.13834    84.80  LEFT      1.59329E-01    53.98    9.62322E-01   111.36
   60.00   200.00     -11.82   -4.06   -3.39    0.03948    67.82  LEFT      1.44210E-01   -45.93    3.52167E-01   -39.47
   65.00   200.00     -12.11    3.74    3.85    0.16067    89.26  LEFT      1.39391E-01  -156.00    8.64720E-01   -70.49
   70.00   200.00     -12.95    4.77    4.84    0.05591    83.30  LEFT      1.26606E-01    94.38    9.73654E-01   120.23
   75.00   200.00     -13.71  -13.35  -10.52    0.90446    57.43  LEFT      1.15934E-01   -22.76    1.20918E-01    62.03
   80.00   200.00     -13.95    5.79    5.83    0.09663    87.95  LEFT      1.12820E-01  -133.40    1.09459E+00   -63.57
   85.00   200.00     -13.48    5.56    5.61    0.06286    84.73  LEFT      1.19101E-01    84.91    1.06648E+00   119.50
   90.00   200.00    -999.99 -190.77 -190.70    0.00000     0.00            2.05946E-11  -122.28    1.62636E-10   -62.10
    0.00   210.00      -7.59   -5.05   -3.12    0.02396    53.27  LEFT      2.34683E-01   -98.94    3.14434E-01   -96.07
    5.00   210.00      -6.95   -4.10   -2.29    0.07575    54.34  LEFT      2.52544E-01  -100.66    3.50586E-01   -91.52
   10.00   210.00      -5.67   -1.95   -0.41    0.12980    57.33  LEFT      2.92857E-01  -108.15    4.49210E-01   -91.95
   15.00   210.00      -4.93   -0.14    1.11    0.19423    61.36  LEFT      3.18877E-01  -119.66    5.53268E-01   -94.03
   20.00   210.00      -6.31   -0.65    0.40    0.28026    66.04  LEFT      2.71989E-01  -138.67    5.21779E-01   -99.33
   25.00   210.00     -10.80   -7.81   -6.04    0.49837    61.73  LEFT      1.62069E-01   167.88    2.28858E-01  -134.29
   30.00   210.00      -7.53   -1.34   -0.40    0.20505    65.90  LEFT      2.36242E-01    86.71    4.82118E-01   116.58
   35.00   210.00      -6.45    1.75    2.36    0.29799    75.83  LEFT      2.67686E-01    45.02    6.87405E-01    99.05
   40.00   210.00     -10.34   -9.02   -6.62    0.36118    50.68  LEFT      1.70901E-01   -38.02    1.99082E-01     2.25
   45.00   210.00      -7.24    3.38    3.74    0.22367    79.13  LEFT      2.44317E-01  -120.48    8.29496E-01   -68.67
   50.00   210.00     -10.15   -9.38   -6.74    0.59314    50.32  LEFT      1.74752E-01   154.31    1.90962E-01  -143.92
   55.00   210.00      -8.69    4.45    4.66    0.18755    83.41  LEFT      2.06691E-01    54.59    9.38402E-01   114.19
   60.00   210.00     -10.52   -4.30   -3.37    0.07662    64.22  LEFT      1.67543E-01   -47.26    3.42880E-01   -36.13
   65.00   210.00     -10.48    3.57    3.74    0.19784    89.26  LEFT      1.68209E-01  -154.25    8.48406E-01   -67.84
   70.00   210.00     -11.60    4.59    4.70    0.07499    82.27  LEFT      1.47928E-01    93.47    9.54106E-01   122.98
[...]
   50.00   280.00      -7.32   -9.85   -5.39    0.72840   -11.41  LEFT      2.41957E-01   166.00    1.80936E-01   -96.87
   55.00   280.00      -4.32    3.23    3.93    0.41187   -85.48  LEFT      3.41838E-01    62.21    8.15500E-01   161.22
   60.00   280.00      -7.85   -5.11   -3.26    0.44581    58.61  LEFT      2.27651E-01   -40.33    3.12186E-01    11.04
   65.00   280.00      -6.97    2.61    3.06    0.28593   -80.41  LEFT      2.51932E-01  -142.90    7.59346E-01   -25.07
   70.00   280.00      -8.75    3.73    3.97    0.21204    83.86  LEFT      2.05348E-01   100.94    8.63930E-01   165.36
   75.00   280.00      -9.90  -13.71   -8.39    0.52144   -21.97  LEFT      1.79841E-01   -12.66    1.16035E-01   103.19
   80.00   280.00     -12.01    4.87    4.95    0.13814   -87.82  LEFT      1.41078E-01  -125.86    9.84506E-01   -20.74
   85.00   280.00     -12.20    4.67    4.76    0.11710    85.26  LEFT      1.38024E-01   106.91    9.62178E-01   162.18
   90.00   280.00    -999.99 -191.66 -191.58    0.00000     0.00            1.98256E-11  -109.62    1.46898E-10   -19.75
    0.00   290.00      -4.11  -10.06   -3.12    0.02396   -26.73  LEFT      3.50365E-01   -96.41    1.76606E-01    80.18
    5.00   290.00      -3.28   -9.04   -2.26    0.14086   -26.43  LEFT      3.85441E-01   -98.50    1.98670E-01    61.67
   10.00   290.00      -1.54   -6.77   -0.40    0.25536   -26.07  LEFT      4.70950E-01  -105.83    2.57899E-01    39.48
   15.00   290.00      -0.32   -4.54    1.08    0.36976   -26.77  LEFT      5.42201E-01  -115.46    3.33412E-01    17.73
   20.00   290.00      -1.35   -4.42    0.39    0.47096   -28.95  LEFT      4.81024E-01  -129.63    3.38188E-01    -4.64
   25.00   290.00      -7.20   -9.95   -5.35    0.56631   -26.71  LEFT      2.45498E-01  -173.19    1.78863E-01   -57.47
   30.00   290.00      -3.95   -3.30   -0.60    0.71590   -51.68  LEFT      3.56990E-01    89.22    3.84633E-01  -162.45
   35.00   290.00      -1.85   -0.22    2.05    0.60849   -56.89  LEFT      4.54596E-01    54.43    5.48363E-01   169.77
   40.00   290.00      -7.98   -9.36   -5.61    0.84691    -7.94  LEFT      2.24403E-01   -25.58    1.91280E-01    67.03
   45.00   290.00      -2.99    2.06    3.24    0.51918   -77.77  LEFT      3.98298E-01  -113.31    7.12438E-01    -7.07
   50.00   290.00      -7.66   -9.68   -5.54    0.73013   -20.61  LEFT      2.32895E-01   168.27    1.84445E-01   -89.83
   55.00   290.00      -4.74    3.47    4.08    0.37063   -83.23  LEFT      3.25765E-01    63.62    8.37892E-01   168.86
   60.00   290.00      -8.22   -4.86   -3.21    0.46894    62.63  LEFT      2.18209E-01   -37.91    3.21484E-01    17.91
   65.00   290.00      -7.31    2.78    3.19    0.25410   -79.62  LEFT      2.42334E-01  -141.17    7.74590E-01   -18.06
   70.00   290.00      -9.10    3.91    4.12    0.20725    85.19  LEFT      1.97259E-01   103.17    8.82105E-01   172.09
   75.00   290.00     -10.20  -13.64   -8.58    0.50382   -25.41  LEFT      1.73693E-01   -10.46    1.16972E-01   109.39
   80.00   290.00     -12.24    5.02    5.10    0.12966   -87.45  LEFT      1.37336E-01  -122.91    1.00163E+00   -14.26
   85.00   290.00     -12.27    4.82    4.90    0.11968    85.87  LEFT      1.36861E-01   109.21    9.79046E-01   168.58
   90.00   290.00    -999.99 -191.51 -191.44    0.00000     0.00            1.97325E-11  -106.08    1.49383E-10   -13.35
    0.00   300.00      -5.05   -7.59   -3.12    0.02396   -36.73  LEFT      3.14434E-01   -96.07    2.34683E-01    81.06
    5.00   300.00      -4.19   -6.69   -2.25    0.13253   -36.55  LEFT      3.47136E-01   -98.01    2.60184E-01    66.25
   10.00   300.00      -2.39   -4.70   -0.38    0.23542   -36.56  LEFT      4.27080E-01  -105.27    3.27326E-01    47.21
   15.00   300.00      -1.10   -2.88    1.11    0.33199   -37.66  LEFT      4.95634E-01  -114.83    4.03420E-01    27.52
   20.00   300.00      -2.05   -3.21    0.42    0.41076   -39.58  LEFT      4.44269E-01  -128.83    3.88328E-01     6.00
   25.00   300.00      -7.77   -9.35   -5.48    0.52411   -35.74  LEFT      2.29950E-01  -171.08    1.91546E-01   -47.81
   30.00   300.00      -4.80   -2.50   -0.49    0.58964   -61.14  LEFT      3.23506E-01    90.77    4.21474E-01  -154.17
   35.00   300.00      -2.54    0.38    2.17    0.49373   -61.09  LEFT      4.19580E-01    55.39    5.87048E-01   178.35
   40.00   300.00      -8.58   -8.99   -5.77    0.88692   -33.19  LEFT      2.09429E-01   -22.72    1.99637E-01    73.57
   45.00   300.00      -3.73    2.48    3.41    0.43381   -76.96  LEFT      3.66025E-01  -112.01    7.48017E-01     0.36
   50.00   300.00      -8.17   -9.49   -5.77    0.72774   -30.36  LEFT      2.19488E-01   170.75    1.88627E-01   -83.51
   55.00   300.00      -5.42    3.78    4.27    0.31968   -82.30  LEFT      3.01132E-01    65.14    8.68346E-01   175.59
   60.00   300.00      -8.77   -4.56   -3.16    0.46496    67.18  LEFT      2.04734E-01   -35.08    3.32683E-01    23.84
   65.00   300.00      -7.86    3.02    3.36    0.21931   -79.59  LEFT      2.27504E-01  -139.40    7.95884E-01   -11.75
   70.00   300.00      -9.64    4.15    4.33    0.19420    86.32  LEFT      1.85421E-01   105.72    9.06343E-01   178.09
   75.00   300.00     -10.67  -13.54   -8.86    0.49279   -29.23  LEFT      1.64545E-01    -8.07    1.18273E-01   115.14
   80.00   300.00     -12.57    5.22    5.29    0.12007   -87.29  LEFT      1.32278E-01  -119.57    1.02506E+00    -8.41
   85.00   300.00     -12.41    5.02    5.10    0.11953    86.47  LEFT      1.34786E-01   111.25    1.00184E+00   174.35
   90.00   300.00    -999.99 -191.32 -191.25    0.00000     0.00            1.96886E-11  -102.39    1.52771E-10    -7.59
    0.00   310.00      -6.40   -5.88   -3.12    0.02396   -46.73  LEFT      2.68964E-01   -95.64    2.85664E-01    81.61
    5.00   310.00      -5.50   -5.03   -2.25    0.12073   -46.61  LEFT      2.98364E-01   -97.35    3.15120E-01    68.87
   10.00   310.00      -3.63   -3.13   -0.36    0.20886   -46.77  LEFT      3.70369E-01  -104.56    3.91956E-01    51.81
   15.00   310.00      -2.24   -1.51    1.15    0.28654   -47.85  LEFT      4.34295E-01  -114.10    4.72506E-01    33.80
   20.00   310.00      -3.07   -2.10    0.45    0.34679   -49.07  LEFT      3.94729E-01  -128.00    4.41352E-01    13.47
   25.00   310.00      -8.59   -8.73   -5.65    0.47918   -44.23  LEFT      2.09187E-01  -168.78    2.05715E-01   -40.00
   30.00   310.00      -6.03   -1.76   -0.38    0.47688   -68.18  LEFT      2.80926E-01    92.82    4.59309E-01  -147.97
   35.00   310.00      -3.57    0.99    2.29    0.39502   -65.61  LEFT      3.72834E-01    56.37    6.29940E-01  -174.85
   40.00   310.00      -9.39   -8.65   -6.00    0.84569   -60.34  LEFT      1.90705E-01   -19.31    2.07612E-01    78.94
   45.00   310.00      -4.80    2.93    3.60    0.35219   -77.92  LEFT      3.23640E-01  -110.54    7.87498E-01     6.44
   50.00   310.00      -8.88   -9.30   -6.07    0.71786   -40.70  LEFT      2.02252E-01   173.51    1.92801E-01   -78.03
   55.00   310.00      -6.41    4.11    4.48    0.26669   -82.43  LEFT      2.68761E-01    66.81    9.02637E-01  -178.74
   60.00   310.00      -9.52   -4.26   -3.13    0.43493    71.28  LEFT      1.87836E-01   -31.71    3.44337E-01    28.75
   65.00   310.00      -8.64    3.28    3.55    0.18537   -80.18  LEFT      2.07946E-01  -137.55    8.20326E-01    -6.35
   70.00   310.00     -10.37    4.40    4.55    0.17542    87.12  LEFT      1.70327E-01   108.68    9.33471E-01  -176.80
   75.00   310.00     -11.32  -13.44   -9.24    0.48808   -33.56  LEFT      1.52760E-01    -5.44    1.19700E-01   120.28
   80.00   310.00     -12.98    5.44    5.50    0.11065   -87.34  LEFT      1.26201E-01  -115.84    1.05174E+00    -3.37
   85.00   310.00     -12.60    5.24    5.31    0.11721    87.01  LEFT      1.31864E-01   112.97    1.02761E+00   179.30
   90.00   310.00    -999.99 -191.10 -191.03    0.00000     0.00            1.97079E-11   -98.70    1.56621E-10    -2.62
    0.00   320.00      -8.34   -4.68   -3.12    0.02396   -56.73  LEFT      2.15343E-01   -95.01    3.27983E-01    82.00
    5.00   320.00      -7.37   -3.84   -2.25    0.10588   -56.60  LEFT      2.40633E-01   -96.37    3.61212E-01    70.51
   10.00   320.00      -5.38   -1.98   -0.35    0.17717   -56.69  LEFT      3.02575E-01  -103.55    4.47633E-01    54.71
   15.00   320.00      -3.87   -0.44    1.18    0.23660   -57.41  LEFT      3.60079E-01  -113.17    5.34236E-01    37.92
   20.00   320.00      -4.53   -1.18    0.47    0.28244   -57.77  LEFT      3.33929E-01  -127.09    4.90902E-01    18.68
   25.00   320.00      -9.71   -8.18   -5.86    0.43217   -52.37  LEFT      1.83906E-01  -166.13    2.19343E-01   -33.83
   30.00   320.00      -7.73   -1.13   -0.27    0.37638   -74.29  LEFT      2.30795E-01    95.80    4.93886E-01  -143.47
   35.00   320.00      -5.01    1.54    2.41    0.30884   -70.28  LEFT      3.15816E-01    57.39    6.71533E-01  -169.67
   40.00   320.00     -10.44   -8.38   -6.28    0.75734   -74.47  LEFT      1.69076E-01   -15.08    2.14178E-01    83.19
   45.00   320.00      -6.29    3.34    3.79    0.27770   -79.85  LEFT      2.72522E-01  -108.76    8.25940E-01    11.20
   50.00   320.00      -9.80   -9.14   -6.45    0.69622   -51.34  LEFT      1.81854E-01   176.71    1.96278E-01   -73.44
   55.00   320.00      -7.77    4.43    4.69    0.21572   -83.33  LEFT      2.29726E-01    68.77    9.36481E-01  -174.21
   60.00   320.00     -10.48   -3.99   -3.11    0.38570    74.34  LEFT      1.68310E-01   -27.56    3.55079E-01    32.60
   65.00   320.00      -9.69    3.54    3.74    0.15431   -81.23  LEFT      1.84318E-01  -135.57    8.44829E-01    -1.93
   70.00   320.00     -11.33    4.65    4.76    0.15335    87.61  LEFT      1.52618E-01   112.22    9.60206E-01  -172.66
   75.00   320.00     -12.15  -13.34   -9.70    0.48928   -38.57  LEFT      1.38799E-01    -2.46    1.20979E-01   124.69
   80.00   320.00     -13.45    5.66    5.71    0.10219   -87.55  LEFT      1.19456E-01  -111.68    1.07840E+00     0.77
   85.00   320.00     -12.84    5.45    5.52    0.11344    87.47  LEFT      1.28193E-01   114.32    1.05324E+00  -176.64
   90.00   320.00    -999.99 -190.89 -190.83    0.00000     0.00            1.97988E-11   -95.12    1.60466E-10     1.47
    0.00   330.00     -11.18   -3.86   -3.12    0.02396   -66.73  LEFT      1.55224E-01   -93.91    3.60348E-01    82.31
    5.00   330.00     -10.10   -3.03   -2.25    0.08850   -66.52  LEFT      1.75763E-01   -94.69    3.96805E-01    71.59
   10.00   330.00      -7.92   -1.16   -0.33    0.14173   -66.35  LEFT      2.25834E-01  -101.92    4.91674E-01    56.59
   15.00   330.00      -6.20    0.34    1.21    0.18429   -66.49  LEFT      2.75299E-01  -111.80    5.84530E-01    40.66
   20.00   330.00      -6.57   -0.47    0.48    0.21911   -65.93  LEFT      2.63741E-01  -125.99    5.32655E-01    22.30
   25.00   330.00     -11.19   -7.73   -6.12    0.38314   -60.28  LEFT      1.54982E-01  -162.84    2.30784E-01   -29.05
   30.00   330.00     -10.13   -0.64   -0.18    0.28539   -79.94  LEFT      1.75197E-01   100.70    5.22073E-01  -140.34
   35.00   330.00      -7.03    2.00    2.51    0.23214   -75.00  LEFT      2.50293E-01    58.58    7.07404E-01  -165.88
   40.00   330.00     -11.73   -8.21   -6.61    0.65712   -82.97  LEFT      1.45618E-01    -9.59    2.18513E-01    86.40
   45.00   330.00      -8.38    3.68    3.95    0.21017   -82.33  LEFT      2.14368E-01  -106.30    8.59157E-01    14.73
   50.00   330.00     -10.96   -9.05   -6.89    0.65927   -61.74  LEFT      1.59105E-01  -179.44    1.98446E-01   -69.76
   55.00   330.00      -9.64    4.70    4.86    0.16817   -84.72  LEFT      1.85342E-01    71.33    9.66075E-01  -170.77
   60.00   330.00     -11.64   -3.78   -3.12    0.32491    76.33  LEFT      1.47160E-01   -22.29    3.63757E-01    35.42
   65.00   330.00     -11.06    3.76    3.90    0.12681   -82.59  LEFT      1.57409E-01  -133.31    8.66542E-01     1.48
   70.00   330.00     -12.52    4.86    4.94    0.12977    87.80  LEFT      1.33091E-01   116.66    9.83575E-01  -169.51
   75.00   330.00     -13.19  -13.28  -10.22    0.49531   -44.47  LEFT      1.23214E-01     1.01    1.21846E-01   128.31
   80.00   330.00     -13.98    5.85    5.89    0.09509   -87.88  LEFT      1.12423E-01  -107.08    1.10200E+00     3.96
   85.00   330.00     -13.14    5.64    5.69    0.10888    87.85  LEFT      1.23898E-01   115.26    1.07585E+00  -173.52
   90.00   330.00    -999.99 -190.71 -190.64    0.00000     0.00            1.99625E-11   -91.79    1.63868E-10     4.62
    0.00   340.00     -15.86   -3.36   -3.12    0.02396   -76.73  LEFT      9.05217E-02   -91.30    3.81774E-01    82.58
    5.00   340.00     -14.50   -2.52   -2.25    0.06916   -76.38  LEFT      1.05957E-01   -90.82    4.20694E-01    72.29
   10.00   340.00     -11.91   -0.64   -0.33    0.10371   -75.80  LEFT      1.42728E-01   -98.43    5.22244E-01    57.78
   15.00   340.00      -9.76    0.86    1.22    0.13084   -75.22  LEFT      1.82688E-01  -109.23    6.20685E-01    42.42
   20.00   340.00      -9.59    0.02    0.47    0.15705   -73.76  LEFT      1.86344E-01  -124.32    5.63685E-01    24.73
   25.00   340.00     -13.16   -7.44   -6.41    0.33174   -68.06  LEFT      1.23503E-01  -158.33    2.38797E-01   -25.42
   30.00   340.00     -13.60   -0.32   -0.12    0.20116   -85.36  LEFT      1.17495E-01   110.62    5.41693E-01  -138.34
   35.00   340.00      -9.98    2.32    2.57    0.16216   -79.75  LEFT      1.78303E-01    60.26    7.34263E-01  -163.29
   40.00   340.00     -13.29   -8.15   -6.99    0.55324   -89.41  LEFT      1.21745E-01    -2.09    2.20023E-01    88.65
   45.00   340.00     -11.40    3.93    4.06    0.14820   -85.11  LEFT      1.51271E-01  -102.15    8.83929E-01    17.13
   50.00   340.00     -12.39   -9.03   -7.38    0.60560   -71.39  LEFT      1.34979E-01  -174.53    1.98815E-01   -66.99
   55.00   340.00     -12.25    4.90    4.98    0.12396   -86.42  LEFT      1.37207E-01    75.29    9.88386E-01  -168.40
   60.00   340.00     -13.01   -3.65   -3.17    0.25803    77.46  LEFT      1.25662E-01   -15.29    3.69506E-01    37.23
   65.00   340.00     -12.85    3.92    4.01    0.10262   -84.14  LEFT      1.28129E-01  -130.48    8.83114E-01     3.90
   70.00   340.00     -13.96    5.01    5.07    0.10575    87.78  LEFT      1.12736E-01   122.53    1.00117E+00  -167.34
   75.00   340.00     -14.44  -13.27  -10.80    0.50359   -51.51  LEFT      1.06648E-01     5.26    1.22068E-01   131.09
   80.00   340.00     -14.53    5.99    6.02    0.08938   -88.30  LEFT      1.05492E-01  -102.03    1.12003E+00     6.21
   85.00   340.00     -13.48    5.77    5.83    0.10409    88.15  LEFT      1.19128E-01   115.72    1.09306E+00  -171.34
   90.00   340.00    -999.99 -190.57 -190.51    0.00000     0.00            2.01929E-11   -88.84    1.66467E-10     6.83
    0.00   350.00     -27.29   -3.14   -3.12    0.02396   -86.73  LEFT      2.42826E-02   -74.37    3.91606E-01    82.82
    5.00   350.00     -23.99   -2.29   -2.26    0.04843   -86.20  LEFT      3.55126E-02   -71.01    4.32087E-01    72.70
   10.00   350.00     -19.80   -0.38   -0.33    0.06404   -85.11  LEFT      5.75338E-02   -84.46    5.38154E-01    58.43
   15.00   350.00     -16.32    1.14    1.22    0.07686   -83.73  LEFT      8.59195E-02  -101.10    6.40958E-01    43.43
   20.00   350.00     -14.63    0.30    0.44    0.09586   -81.39  LEFT      1.04276E-01  -120.58    5.82072E-01    26.24
   25.00   350.00     -15.83   -7.30   -6.73    0.27738   -75.77  LEFT      9.09121E-02  -151.17    2.42508E-01   -22.76
   30.00   350.00     -18.46   -0.17   -0.11    0.12119    89.36  LEFT      6.71062E-02   137.89    5.51373E-01  -137.33
   35.00   350.00     -14.81    2.50    2.58    0.09637   -84.50  LEFT      1.02185E-01    63.78    7.49874E-01  -161.76
   40.00   350.00     -15.05   -8.22   -7.40    0.44742    85.07  LEFT      9.94139E-02     8.66    2.18343E-01    89.97
   45.00   350.00     -16.27    4.07    4.11    0.08993   -88.04  LEFT      8.64036E-02   -92.14    8.98039E-01    18.50
   50.00   350.00     -14.12   -9.11   -7.92    0.53612   -80.05  LEFT      1.10669E-01  -167.87    1.97048E-01   -65.12
   55.00   350.00     -16.15    5.01    5.05    0.08225   -88.30  LEFT      8.75436E-02    83.28    1.00126E+00  -167.03
   60.00   350.00     -14.53   -3.59   -3.26    0.18809    77.99  LEFT      1.05494E-01    -5.70    3.71773E-01    38.07
   65.00   350.00     -15.22    4.02    4.07    0.08102   -85.81  LEFT      9.75217E-02  -126.44    8.92824E-01     5.34
   70.00   350.00     -15.64    5.10    5.14    0.08178    87.61  LEFT      9.28368E-02   130.71    1.01127E+00  -166.12
   75.00   350.00     -15.93  -13.31  -11.41    0.50893   -59.92  LEFT      8.98468E-02    10.73    1.21473E-01   133.00
   80.00   350.00     -15.08    6.07    6.10    0.08490   -88.77  LEFT      9.90256E-02   -96.59    1.13065E+00     7.51
   85.00   350.00     -13.86    5.85    5.90    0.09943    88.38  LEFT      1.14049E-01   115.64    1.10315E+00  -170.10
   90.00   350.00    -999.99 -190.49 -190.43    0.00000     0.00            2.04772E-11   -86.36    1.67999E-10     8.11
    0.00   360.00     -21.58   -3.19   -3.12    0.02396    83.27  LEFT      4.68831E-02    71.42    3.89548E-01    83.06
    5.00   360.00     -21.62   -2.32   -2.27    0.02691    84.01  LEFT      4.66647E-02    58.34    4.30602E-01    72.88
   10.00   360.00     -22.38   -0.37   -0.34    0.02350    85.67  LEFT      4.27466E-02    41.30    5.38793E-01    58.63
   15.00   360.00     -26.01    1.18    1.19    0.02255    87.86  LEFT      2.81613E-02    12.68    6.44401E-01    43.80
   20.00   360.00     -27.72    0.37    0.38    0.03483   -88.95  LEFT      2.31092E-02   -90.84    5.86709E-01    26.95
   25.00   360.00     -19.48   -7.34   -7.09    0.21925   -83.46  LEFT      5.97014E-02  -137.13    2.41370E-01   -20.97
   30.00   360.00     -19.23   -0.18   -0.13    0.04314    84.12  LEFT      6.14180E-02  -160.25    5.50449E-01  -137.25
   35.00   360.00     -26.60    2.54    2.54    0.03234   -89.24  LEFT      2.63123E-02    86.54    7.52950E-01  -161.20
   40.00   360.00     -16.78   -8.42   -7.83    0.33975    80.02  LEFT      8.14818E-02    24.31    2.13340E-01    90.35
   45.00   360.00     -24.31    4.09    4.10    0.03340    88.96  LEFT      3.42397E-02   -42.59    9.00242E-01    18.87
   50.00   360.00     -16.13   -9.29   -8.47    0.45305   -87.70  LEFT      8.77517E-02  -158.19    1.92970E-01   -64.17
   55.00   360.00     -22.48    5.03    5.04    0.04187    89.74  LEFT      4.22530E-02   109.44    1.00348E+00  -166.64
   60.00   360.00     -16.02   -3.63   -3.38    0.11646    78.14  LEFT      8.88846E-02     7.53    3.70324E-01    37.94
   65.00   360.00     -18.49    4.03    4.06    0.06102   -87.52  LEFT      6.69159E-02  -119.35    8.94644E-01     5.82
   70.00   360.00     -17.48    5.11    5.14    0.05798    87.35  LEFT      7.51787E-02   142.61    1.01293E+00  -165.86
   75.00   360.00     -17.65  -13.42  -12.03    0.50285   -69.63  LEFT      7.37027E-02    18.16    1.19954E-01   134.02
   80.00   360.00     -15.60    6.08    6.11    0.08141   -89.28  LEFT      9.33202E-02   -90.87    1.13277E+00     7.88
   85.00   360.00     -14.26    5.87    5.91    0.09517    88.55  LEFT      1.08838E-01   114.99    1.10512E+00  -169.79
   90.00   360.00    -999.99 -190.48 -190.41    0.00000     0.00            2.07976E-11   -84.42    1.68309E-10     8.46


   AVERAGE POWER GAIN= 1.58535E+00       SOLID ANGLE USED IN AVERAGING=( 2.0000)*PI STERADIANS.








 ***** DATA CARD NO.  5   EN   0    19    37  1003  0.00000E+00  0.00000E+00  5.00000E+00  1.00000E+01  0.00000E+00  0.00000E+00

 RUN TIME =     0.141
