1



                                 *********************************************

                                    NUMERICAL ELECTROMAGNETICS CODE (NEC-2D)

                                 *********************************************




                                     - - - - COMMENTS - - - -


                                                                                                     
                                                                                                     




                                 - - - STRUCTURE SPECIFICATION - - -

                                     COORDINATES MUST BE INPUT IN
                                     METERS OR BE SCALED TO METERS
                                     BEFORE STRUCTURE INPUT IS ENDED


  WIRE                                                                               NO. OF    FIRST  LAST     TAG
  NO.        X1         Y1         Z1          X2         Y2         Z2      RADIUS   SEG.     SEG.   SEG.     NO.
     1   -1.00000    0.00000   -0.52000    -1.00000    0.00000   -0.05200    0.00500      9        1     9       1
     2   -1.00000    0.00000   -0.05200    -1.00000    0.00000    0.00000    0.00500      1       10    10     999
     3   -1.00000    0.00000    0.00000    -1.00000    0.00000    0.52000    0.00500      9       11    19       1

   TOTAL SEGMENTS USED=   19     NO. SEG. IN A SYMMETRIC CELL=   19     SYMMETRY FLAG=  0


         - MULTIPLE WIRE JUNCTIONS -
 JUNCTION    SEGMENTS  (- FOR END 1, + FOR END 2)
  NONE




                                 - - - - SEGMENTATION DATA - - - -

                                        COORDINATES IN METERS

                         I+ AND I- INDICATE THE SEGMENTS BEFORE AND AFTER I


  SEG.   COORDINATES OF SEG. CENTER     SEG.     ORIENTATION ANGLES    WIRE    CONNECTION DATA   TAG
  NO.       X         Y         Z       LENGTH     ALPHA     BETA      RADIUS    I-   I    I+    NO.
     1  -1.00000   0.00000  -0.49400   0.05200   90.00000   0.00000   0.00500     0    1    2      1
     2  -1.00000   0.00000  -0.44200   0.05200   90.00000   0.00000   0.00500     1    2    3      1
     3  -1.00000   0.00000  -0.39000   0.05200   90.00000   0.00000   0.00500     2    3    4      1
     4  -1.00000   0.00000  -0.33800   0.05200   90.00000   0.00000   0.00500     3    4    5      1
     5  -1.00000   0.00000  -0.28600   0.05200   90.00000   0.00000   0.00500     4    5    6      1
     6  -1.00000   0.00000  -0.23400   0.05200   90.00000   0.00000   0.00500     5    6    7      1
     7  -1.00000   0.00000  -0.18200   0.05200   90.00000   0.00000   0.00500     6    7    8      1
     8  -1.00000   0.00000  -0.13000   0.05200   90.00000   0.00000   0.00500     7    8    9      1
     9  -1.00000   0.00000  -0.07800   0.05200   90.00000   0.00000   0.00500     8    9   10      1
    10  -1.00000   0.00000  -0.02600   0.05200   90.00000   0.00000   0.00500     9   10   11    999
    11  -1.00000   0.00000   0.02889   0.05778   90.00000   0.00000   0.00500    10   11   12      1
    12  -1.00000   0.00000   0.08667   0.05778   90.00000   0.00000   0.00500    11   12   13      1
    13  -1.00000   0.00000   0.14444   0.05778   90.00000   0.00000   0.00500    12   13   14      1
    14  -1.00000   0.00000   0.20222   0.05778   90.00000   0.00000   0.00500    13   14   15      1
    15  -1.00000   0.00000   0.26000   0.05778   90.00000   0.00000   0.00500    14   15   16      1
    16  -1.00000   0.00000   0.31778   0.05778   90.00000   0.00000   0.00500    15   16   17      1
    17  -1.00000   0.00000   0.37556   0.05778   90.00000   0.00000   0.00500    16   17   18      1
    18  -1.00000   0.00000   0.43333   0.05778   90.00000   0.00000   0.00500    17   18   19      1
    19  -1.00000   0.00000   0.49111   0.05778   90.00000   0.00000   0.00500    18   19    0      1






 ***** DATA CARD NO.  1   EX   0   999     1     0  1.00000E+00  0.00000E+00  0.00000E+00  0.00000E+00  0.00000E+00  0.00000E+00
 ***** DATA CARD NO.  2   FR   0     1     0     0  1.44200E+02  0.00000E+00  0.00000E+00  0.00000E+00  0.00000E+00  0.00000E+00
 ***** DATA CARD NO.  3   RP   0    37    37  1003  0.00000E+00  0.00000E+00  5.00000E+00  1.00000E+01  0.00000E+00  0.00000E+00




                                 - - - - - - FREQUENCY - - - - - -

                                    FREQUENCY= 1.4420E+02 MHZ
                                    WAVELENGTH= 2.0791E+00 METERS




                    APPROXIMATE INTEGRATION EMPLOYED FOR SEGMENTS MORE THAN   1.000 WAVELENGTHS APART



                               - - - STRUCTURE IMPEDANCE LOADING - - -

                                   THIS STRUCTURE IS NOT LOADED



                                  - - - ANTENNA ENVIRONMENT - - -

                                            FREE SPACE



                                - - - MATRIX TIMING - - -

                        FILL=    0.000 SEC.,  FACTOR=    0.000 SEC.



                                          - - - ANTENNA INPUT PARAMETERS - - -

   TAG   SEG.    VOLTAGE (VOLTS)         CURRENT (AMPS)         IMPEDANCE (OHMS)        ADMITTANCE (MHOS)      POWER
   NO.   NO.    REAL        IMAG.       REAL        IMAG.       REAL        IMAG.       REAL        IMAG.     (WATTS)
   999    10 1.00000E+00 0.00000E+00 8.51321E-03-4.75384E-03 8.95432E+01 5.00016E+01 8.51321E-03-4.75384E-03 4.25660E-03



                             - - - CURRENTS AND LOCATION - - -

                                 DISTANCES IN WAVELENGTHS


  SEG.  TAG    COORD. OF SEG. CENTER     SEG.            - - - CURRENT (AMPS) - - -
  NO.   NO.     X        Y        Z      LENGTH     REAL        IMAG.       MAG.        PHASE
     1    1  -0.4810   0.0000  -0.2376  0.02501   1.0694E-03 -8.6094E-04  1.3729E-03  -38.836
     2    1  -0.4810   0.0000  -0.2126  0.02501   2.5102E-03 -1.9765E-03  3.1949E-03  -38.217
     3    1  -0.4810   0.0000  -0.1876  0.02501   3.7487E-03 -2.8815E-03  4.7282E-03  -37.548
     4    1  -0.4810   0.0000  -0.1626  0.02501   4.8679E-03 -3.6453E-03  6.0815E-03  -36.827
     5    1  -0.4810   0.0000  -0.1376  0.02501   5.8618E-03 -4.2642E-03  7.2487E-03  -36.034
     6    1  -0.4810   0.0000  -0.1126  0.02501   6.7179E-03 -4.7288E-03  8.2154E-03  -35.142
     7    1  -0.4810   0.0000  -0.0875  0.02501   7.4225E-03 -5.0272E-03  8.9647E-03  -34.110
     8    1  -0.4810   0.0000  -0.0625  0.02501   7.9628E-03 -5.1447E-03  9.4802E-03  -32.866
     9    1  -0.4810   0.0000  -0.0375  0.02501   8.3287E-03 -5.0400E-03  9.7350E-03  -31.180
    10  999  -0.4810   0.0000  -0.0125  0.02501   8.5132E-03 -4.7538E-03  9.7506E-03  -29.179
    11    1  -0.4810   0.0000   0.0139  0.02779   8.5071E-03 -5.2177E-03  9.9797E-03  -31.522
    12    1  -0.4810   0.0000   0.0417  0.02779   8.2781E-03 -5.4800E-03  9.9276E-03  -33.504
    13    1  -0.4810   0.0000   0.0695  0.02779   7.8264E-03 -5.4685E-03  9.5476E-03  -34.943
    14    1  -0.4810   0.0000   0.0973  0.02779   7.1628E-03 -5.2264E-03  8.8669E-03  -36.117
    15    1  -0.4810   0.0000   0.1251  0.02779   6.3025E-03 -4.7694E-03  7.9037E-03  -37.116
    16    1  -0.4810   0.0000   0.1528  0.02779   5.2639E-03 -4.1117E-03  6.6795E-03  -37.994
    17    1  -0.4810   0.0000   0.1806  0.02779   4.0654E-03 -3.2667E-03  5.2153E-03  -38.784
    18    1  -0.4810   0.0000   0.2084  0.02779   2.7195E-03 -2.2427E-03  3.5249E-03  -39.511
    19    1  -0.4810   0.0000   0.2362  0.02779   1.1460E-03 -9.6774E-04  1.4999E-03  -40.180



                                        - - - POWER BUDGET - - -

                                           INPUT POWER   = 4.2566E-03 WATTS
                                           RADIATED POWER= 4.2566E-03 WATTS
                                           STRUCTURE LOSS= 0.0000E+00 WATTS
                                           NETWORK LOSS  = 0.0000E+00 WATTS
                                           EFFICIENCY    = 100.00 PERCENT



                                                - - - RADIATION PATTERNS - - -

  - - ANGLES - -           - POWER GAINS -       - - - POLARIZATION - - -    - - - E(THETA) - - -    - - - E(PHI) - - -
  THETA     PHI        VERT.   HOR.    TOTAL      AXIAL     TILT   SENSE     MAGNITUDE    PHASE      MAGNITUDE    PHASE 
 DEGREES  DEGREES       DB      DB      DB        RATIO     DEG.              VOLTS/M    DEGREES      VOLTS/M    DEGREES
    0.00     0.00    -999.99 -999.99 -999.99    0.00000     0.00            0.00000E+00     0.00    0.00000E+00     0.00
    5.00     0.00     -21.22 -999.99  -21.22    0.00000     0.00  LINEAR    4.39131E-02    41.24    0.00000E+00     0.00
   10.00     0.00     -15.18 -999.99  -15.18    0.00000     0.00  LINEAR    8.80368E-02    26.23    0.00000E+00     0.00
   15.00     0.00     -11.62 -999.99  -11.62    0.00000     0.00  LINEAR    1.32550E-01    11.45    0.00000E+00     0.00
   20.00     0.00      -9.08 -999.99   -9.08    0.00000     0.00  LINEAR    1.77570E-01    -3.01    0.00000E+00     0.00
   25.00     0.00      -7.10 -999.99   -7.10    0.00000     0.00  LINEAR    2.23123E-01   -17.04    0.00000E+00     0.00
   30.00     0.00      -5.47 -999.99   -5.47    0.00000     0.00  LINEAR    2.69120E-01   -30.51    0.00000E+00     0.00
   35.00     0.00      -4.09 -999.99   -4.09    0.00000     0.00  LINEAR    3.15335E-01   -43.33    0.00000E+00     0.00
   40.00     0.00      -2.91 -999.99   -2.91    0.00000     0.00  LINEAR    3.61395E-01   -55.40    0.00000E+00     0.00
   45.00     0.00      -1.88 -999.99   -1.88    0.00000     0.00  LINEAR    4.06776E-01   -66.63    0.00000E+00     0.00
   50.00     0.00      -0.99 -999.99   -0.99    0.00000     0.00  LINEAR    4.50809E-01   -76.92    0.00000E+00     0.00
   55.00     0.00      -0.22 -999.99   -0.22    0.00000     0.00  LINEAR    4.92702E-01   -86.20    0.00000E+00     0.00
   60.00     0.00       0.44 -999.99    0.44    0.00000     0.00  LINEAR    5.31569E-01   -94.40    0.00000E+00     0.00
   65.00     0.00       0.99 -999.99    0.99    0.00000     0.00  LINEAR    5.66479E-01  -101.45    0.00000E+00     0.00
   70.00     0.00       1.44 -999.99    1.44    0.00000     0.00  LINEAR    5.96501E-01  -107.30    0.00000E+00     0.00
   75.00     0.00       1.79 -999.99    1.79    0.00000     0.00  LINEAR    6.20773E-01  -111.90    0.00000E+00     0.00
   80.00     0.00       2.03 -999.99    2.03    0.00000     0.00  LINEAR    6.38548E-01  -115.22    0.00000E+00     0.00
   85.00     0.00       2.18 -999.99    2.18    0.00000     0.00  LINEAR    6.49257E-01  -117.23    0.00000E+00     0.00
   90.00     0.00       2.22 -999.99    2.22    0.00000     0.00  LINEAR    6.52548E-01  -117.93    0.00000E+00     0.00
   95.00     0.00       2.17 -999.99    2.17    0.00000     0.00  LINEAR    6.48310E-01  -117.29    0.00000E+00     0.00
  100.00     0.00       2.01 -999.99    2.01    0.00000     0.00  LINEAR    6.36688E-01  -115.33    0.00000E+00     0.00
  105.00     0.00       1.75 -999.99    1.75    0.00000     0.00  LINEAR    6.18066E-01  -112.06    0.00000E+00     0.00
  110.00     0.00       1.39 -999.99    1.39    0.00000     0.00  LINEAR    5.93044E-01  -107.51    0.00000E+00     0.00
  115.00     0.00       0.93 -999.99    0.93    0.00000     0.00  LINEAR    5.62391E-01  -101.71    0.00000E+00     0.00
  120.00     0.00       0.37 -999.99    0.37    0.00000     0.00  LINEAR    5.26990E-01   -94.71    0.00000E+00     0.00
  125.00     0.00      -0.30 -999.99   -0.30    0.00000     0.00  LINEAR    4.87783E-01   -86.57    0.00000E+00     0.00
  130.00     0.00      -1.09 -999.99   -1.09    0.00000     0.00  LINEAR    4.45710E-01   -77.33    0.00000E+00     0.00
  135.00     0.00      -1.99 -999.99   -1.99    0.00000     0.00  LINEAR    4.01655E-01   -67.09    0.00000E+00     0.00
  140.00     0.00      -3.03 -999.99   -3.03    0.00000     0.00  LINEAR    3.56407E-01   -55.91    0.00000E+00     0.00
  145.00     0.00      -4.22 -999.99   -4.22    0.00000     0.00  LINEAR    3.10626E-01   -43.88    0.00000E+00     0.00
  150.00     0.00      -5.61 -999.99   -5.61    0.00000     0.00  LINEAR    2.64824E-01   -31.09    0.00000E+00     0.00
  155.00     0.00      -7.25 -999.99   -7.25    0.00000     0.00  LINEAR    2.19358E-01   -17.65    0.00000E+00     0.00
  160.00     0.00      -9.24 -999.99   -9.24    0.00000     0.00  LINEAR    1.74436E-01    -3.65    0.00000E+00     0.00
  165.00     0.00     -11.78 -999.99  -11.78    0.00000     0.00  LINEAR    1.30127E-01    10.78    0.00000E+00     0.00
  170.00     0.00     -15.34 -999.99  -15.34    0.00000     0.00  LINEAR    8.63871E-02    25.56    0.00000E+00     0.00
  175.00     0.00     -21.38 -999.99  -21.38    0.00000     0.00  LINEAR    4.30779E-02    40.55    0.00000E+00     0.00
  180.00     0.00    -999.99 -999.99 -999.99    0.00000     0.00            5.03382E-12  -124.36    0.00000E+00     0.00
    0.00    10.00    -999.99 -999.99 -999.99    0.00000     0.00            0.00000E+00     0.00    0.00000E+00     0.00
    5.00    10.00     -21.22 -999.99  -21.22    0.00000     0.00  LINEAR    4.39131E-02    41.46    0.00000E+00     0.00
   10.00    10.00     -15.18 -999.99  -15.18    0.00000     0.00  LINEAR    8.80368E-02    26.69    0.00000E+00     0.00
   15.00    10.00     -11.62 -999.99  -11.62    0.00000     0.00  LINEAR    1.32550E-01    12.13    0.00000E+00     0.00
   20.00    10.00      -9.08 -999.99   -9.08    0.00000     0.00  LINEAR    1.77570E-01    -2.11    0.00000E+00     0.00
   25.00    10.00      -7.10 -999.99   -7.10    0.00000     0.00  LINEAR    2.23123E-01   -15.92    0.00000E+00     0.00
   30.00    10.00      -5.47 -999.99   -5.47    0.00000     0.00  LINEAR    2.69120E-01   -29.19    0.00000E+00     0.00
   35.00    10.00      -4.09 -999.99   -4.09    0.00000     0.00  LINEAR    3.15335E-01   -41.82    0.00000E+00     0.00
   40.00    10.00      -2.91 -999.99   -2.91    0.00000     0.00  LINEAR    3.61395E-01   -53.71    0.00000E+00     0.00
   45.00    10.00      -1.88 -999.99   -1.88    0.00000     0.00  LINEAR    4.06776E-01   -64.77    0.00000E+00     0.00
   50.00    10.00      -0.99 -999.99   -0.99    0.00000     0.00  LINEAR    4.50809E-01   -74.91    0.00000E+00     0.00
   55.00    10.00      -0.22 -999.99   -0.22    0.00000     0.00  LINEAR    4.92702E-01   -84.05    0.00000E+00     0.00
   60.00    10.00       0.44 -999.99    0.44    0.00000     0.00  LINEAR    5.31569E-01   -92.12    0.00000E+00     0.00
   65.00    10.00       0.99 -999.99    0.99    0.00000     0.00  LINEAR    5.66479E-01   -99.07    0.00000E+00     0.00
   70.00    10.00       1.44 -999.99    1.44    0.00000     0.00  LINEAR    5.96501E-01  -104.83    0.00000E+00     0.00
   75.00    10.00       1.79 -999.99    1.79    0.00000     0.00  LINEAR    6.20773E-01  -109.36    0.00000E+00     0.00
   80.00    10.00       2.03 -999.99    2.03    0.00000     0.00  LINEAR    6.38548E-01  -112.63    0.00000E+00     0.00
   85.00    10.00       2.18 -999.99    2.18    0.00000     0.00  LINEAR    6.49257E-01  -114.61    0.00000E+00     0.00
   90.00    10.00       2.22 -999.99    2.22    0.00000     0.00  LINEAR    6.52548E-01  -115.29    0.00000E+00     0.00
   95.00    10.00       2.17 -999.99    2.17    0.00000     0.00  LINEAR    6.48310E-01  -114.67    0.00000E+00     0.00
  100.00    10.00       2.01 -999.99    2.01    0.00000     0.00  LINEAR    6.36688E-01  -112.74    0.00000E+00     0.00
  105.00    10.00       1.75 -999.99    1.75    0.00000     0.00  LINEAR    6.18066E-01  -109.52    0.00000E+00     0.00
  110.00    10.00       1.39 -999.99    1.39    0.00000     0.00  LINEAR    5.93044E-01  -105.04    0.00000E+00     0.00
  115.00    10.00       0.93 -999.99    0.93    0.00000     0.00  LINEAR    5.62391E-01   -99.33    0.00000E+00     0.00
  120.00    10.00       0.37 -999.99    0.37    0.00000     0.00  LINEAR    5.26990E-01   -92.44    0.00000E+00     0.00
  125.00    10.00      -0.30 -999.99   -0.30    0.00000     0.00  LINEAR    4.87783E-01   -84.41    0.00000E+00     0.00
  130.00    10.00      -1.09 -999.99   -1.09    0.00000     0.00  LINEAR    4.45710E-01   -75.32    0.00000E+00     0.00
  135.00    10.00      -1.99 -999.99   -1.99    0.00000     0.00  LINEAR    4.01655E-01   -65.23    0.00000E+00     0.00
  140.00    10.00      -3.03 -999.99   -3.03    0.00000     0.00  LINEAR    3.56407E-01   -54.21    0.00000E+00     0.00
  145.00    10.00      -4.22 -999.99   -4.22    0.00000     0.00  LINEAR    3.10626E-01   -42.37    0.00000E+00     0.00
  150.00    10.00      -5.61 -999.99   -5.61    0.00000     0.00  LINEAR    2.64824E-01   -29.77    0.00000E+00     0.00
  155.00    10.00      -7.25 -999.99   -7.25    0.00000     0.00  LINEAR    2.19358E-01   -16.54    0.00000E+00     0.00
  160.00    10.00      -9.24 -999.99   -9.24    0.00000     0.00  LINEAR    1.74436E-01    -2.75    0.00000E+00     0.00
  165.00    10.00     -11.78 -999.99  -11.78    0.00000     0.00  LINEAR    1.30127E-01    11.46    0.00000E+00     0.00
  170.00    10.00     -15.34 -999.99  -15.34    0.00000     0.00  LINEAR    8.63871E-02    26.01    0.00000E+00     0.00
  175.00    10.00     -21.38 -999.99  -21.38    0.00000     0.00  LINEAR    4.30779E-02    40.78    0.00000E+00     0.00
  180.00    10.00    -999.99 -999.99 -999.99    0.00000     0.00            5.03382E-12  -124.36    0.00000E+00     0.00
    0.00    20.00    -999.99 -999.99 -999.99    0.00000     0.00            0.00000E+00     0.00    0.00000E+00     0.00
    5.00    20.00     -21.22 -999.99  -21.22    0.00000     0.00  LINEAR    4.39131E-02    42.15    0.00000E+00     0.00
   10.00    20.00     -15.18 -999.99  -15.18    0.00000     0.00  LINEAR    8.80368E-02    28.05    0.00000E+00     0.00
   15.00    20.00     -11.62 -999.99  -11.62    0.00000     0.00  LINEAR    1.32550E-01    14.15    0.00000E+00     0.00
   20.00    20.00      -9.08 -999.99   -9.08    0.00000     0.00  LINEAR    1.77570E-01     0.56    0.00000E+00     0.00
   25.00    20.00      -7.10 -999.99   -7.10    0.00000     0.00  LINEAR    2.23123E-01   -12.62    0.00000E+00     0.00
   30.00    20.00      -5.47 -999.99   -5.47    0.00000     0.00  LINEAR    2.69120E-01   -25.29    0.00000E+00     0.00
   35.00    20.00      -4.09 -999.99   -4.09    0.00000     0.00  LINEAR    3.15335E-01   -37.34    0.00000E+00     0.00
   40.00    20.00      -2.91 -999.99   -2.91    0.00000     0.00  LINEAR    3.61395E-01   -48.69    0.00000E+00     0.00
   45.00    20.00      -1.88 -999.99   -1.88    0.00000     0.00  LINEAR    4.06776E-01   -59.24    0.00000E+00     0.00
   50.00    20.00      -0.99 -999.99   -0.99    0.00000     0.00  LINEAR    4.50809E-01   -68.92    0.00000E+00     0.00
   55.00    20.00      -0.22 -999.99   -0.22    0.00000     0.00  LINEAR    4.92702E-01   -77.65    0.00000E+00     0.00
   60.00    20.00       0.44 -999.99    0.44    0.00000     0.00  LINEAR    5.31569E-01   -85.36    0.00000E+00     0.00
   65.00    20.00       0.99 -999.99    0.99    0.00000     0.00  LINEAR    5.66479E-01   -91.99    0.00000E+00     0.00
   70.00    20.00       1.44 -999.99    1.44    0.00000     0.00  LINEAR    5.96501E-01   -97.49    0.00000E+00     0.00
   75.00    20.00       1.79 -999.99    1.79    0.00000     0.00  LINEAR    6.20773E-01  -101.81    0.00000E+00     0.00
   80.00    20.00       2.03 -999.99    2.03    0.00000     0.00  LINEAR    6.38548E-01  -104.94    0.00000E+00     0.00
   85.00    20.00       2.18 -999.99    2.18    0.00000     0.00  LINEAR    6.49257E-01  -106.83    0.00000E+00     0.00
   90.00    20.00       2.22 -999.99    2.22    0.00000     0.00  LINEAR    6.52548E-01  -107.48    0.00000E+00     0.00
   95.00    20.00       2.17 -999.99    2.17    0.00000     0.00  LINEAR    6.48310E-01  -106.89    0.00000E+00     0.00
  100.00    20.00       2.01 -999.99    2.01    0.00000     0.00  LINEAR    6.36688E-01  -105.04    0.00000E+00     0.00
  105.00    20.00       1.75 -999.99    1.75    0.00000     0.00  LINEAR    6.18066E-01  -101.97    0.00000E+00     0.00
  110.00    20.00       1.39 -999.99    1.39    0.00000     0.00  LINEAR    5.93044E-01   -97.70    0.00000E+00     0.00
  115.00    20.00       0.93 -999.99    0.93    0.00000     0.00  LINEAR    5.62391E-01   -92.25    0.00000E+00     0.00
  120.00    20.00       0.37 -999.99    0.37    0.00000     0.00  LINEAR    5.26990E-01   -85.67    0.00000E+00     0.00
  125.00    20.00      -0.30 -999.99   -0.30    0.00000     0.00  LINEAR    4.87783E-01   -78.01    0.00000E+00     0.00
  130.00    20.00      -1.09 -999.99   -1.09    0.00000     0.00  LINEAR    4.45710E-01   -69.33    0.00000E+00     0.00
  135.00    20.00      -1.99 -999.99   -1.99    0.00000     0.00  LINEAR    4.01655E-01   -59.70    0.00000E+00     0.00
  140.00    20.00      -3.03 -999.99   -3.03    0.00000     0.00  LINEAR    3.56407E-01   -49.19    0.00000E+00     0.00
  145.00    20.00      -4.22 -999.99   -4.22    0.00000     0.00  LINEAR    3.10626E-01   -37.89    0.00000E+00     0.00
  150.00    20.00      -5.61 -999.99   -5.61    0.00000     0.00  LINEAR    2.64824E-01   -25.87    0.00000E+00     0.00
  155.00    20.00      -7.25 -999.99   -7.25    0.00000     0.00  LINEAR    2.19358E-01   -13.24    0.00000E+00     0.00
  160.00    20.00      -9.24 -999.99   -9.24    0.00000     0.00  LINEAR    1.74436E-01    -0.08    0.00000E+00     0.00
  165.00    20.00     -11.78 -999.99  -11.78    0.00000     0.00  LINEAR    1.30127E-01    13.49    0.00000E+00     0.00
  170.00    20.00     -15.34 -999.99  -15.34    0.00000     0.00  LINEAR    8.63871E-02    27.37    0.00000E+00     0.00
  175.00    20.00     -21.38 -999.99  -21.38    0.00000     0.00  LINEAR    4.30779E-02    41.46    0.00000E+00     0.00
  180.00    20.00    -999.99 -999.99 -999.99    0.00000     0.00            5.03382E-12  -124.36    0.00000E+00     0.00
    0.00    30.00    -999.99 -999.99 -999.99    0.00000     0.00            0.00000E+00     0.00    0.00000E+00     0.00
    5.00    30.00     -21.22 -999.99  -21.22    0.00000     0.00  LINEAR    4.39131E-02    43.26    0.00000E+00     0.00
   10.00    30.00     -15.18 -999.99  -15.18    0.00000     0.00  LINEAR    8.80368E-02    30.26    0.00000E+00     0.00
   15.00    30.00     -11.62 -999.99  -11.62    0.00000     0.00  LINEAR    1.32550E-01    17.45    0.00000E+00     0.00
   20.00    30.00      -9.08 -999.99   -9.08    0.00000     0.00  LINEAR    1.77570E-01     4.92    0.00000E+00     0.00
   25.00    30.00      -7.10 -999.99   -7.10    0.00000     0.00  LINEAR    2.23123E-01    -7.23    0.00000E+00     0.00
   30.00    30.00      -5.47 -999.99   -5.47    0.00000     0.00  LINEAR    2.69120E-01   -18.91    0.00000E+00     0.00
   35.00    30.00      -4.09 -999.99   -4.09    0.00000     0.00  LINEAR    3.15335E-01   -30.03    0.00000E+00     0.00
   40.00    30.00      -2.91 -999.99   -2.91    0.00000     0.00  LINEAR    3.61395E-01   -40.49    0.00000E+00     0.00
   45.00    30.00      -1.88 -999.99   -1.88    0.00000     0.00  LINEAR    4.06776E-01   -50.22    0.00000E+00     0.00
   50.00    30.00      -0.99 -999.99   -0.99    0.00000     0.00  LINEAR    4.50809E-01   -59.15    0.00000E+00     0.00
   55.00    30.00      -0.22 -999.99   -0.22    0.00000     0.00  LINEAR    4.92702E-01   -67.20    0.00000E+00     0.00
   60.00    30.00       0.44 -999.99    0.44    0.00000     0.00  LINEAR    5.31569E-01   -74.31    0.00000E+00     0.00
   65.00    30.00       0.99 -999.99    0.99    0.00000     0.00  LINEAR    5.66479E-01   -80.43    0.00000E+00     0.00
   70.00    30.00       1.44 -999.99    1.44    0.00000     0.00  LINEAR    5.96501E-01   -85.50    0.00000E+00     0.00
   75.00    30.00       1.79 -999.99    1.79    0.00000     0.00  LINEAR    6.20773E-01   -89.49    0.00000E+00     0.00
   80.00    30.00       2.03 -999.99    2.03    0.00000     0.00  LINEAR    6.38548E-01   -92.38    0.00000E+00     0.00
   85.00    30.00       2.18 -999.99    2.18    0.00000     0.00  LINEAR    6.49257E-01   -94.12    0.00000E+00     0.00
   90.00    30.00       2.22 -999.99    2.22    0.00000     0.00  LINEAR    6.52548E-01   -94.73    0.00000E+00     0.00
   95.00    30.00       2.17 -999.99    2.17    0.00000     0.00  LINEAR    6.48310E-01   -94.18    0.00000E+00     0.00
  100.00    30.00       2.01 -999.99    2.01    0.00000     0.00  LINEAR    6.36688E-01   -92.48    0.00000E+00     0.00
  105.00    30.00       1.75 -999.99    1.75    0.00000     0.00  LINEAR    6.18066E-01   -89.65    0.00000E+00     0.00
  110.00    30.00       1.39 -999.99    1.39    0.00000     0.00  LINEAR    5.93044E-01   -85.71    0.00000E+00     0.00
  115.00    30.00       0.93 -999.99    0.93    0.00000     0.00  LINEAR    5.62391E-01   -80.69    0.00000E+00     0.00
  120.00    30.00       0.37 -999.99    0.37    0.00000     0.00  LINEAR    5.26990E-01   -74.62    0.00000E+00     0.00
  125.00    30.00      -0.30 -999.99   -0.30    0.00000     0.00  LINEAR    4.87783E-01   -67.56    0.00000E+00     0.00
  130.00    30.00      -1.09 -999.99   -1.09    0.00000     0.00  LINEAR    4.45710E-01   -59.56    0.00000E+00     0.00
  135.00    30.00      -1.99 -999.99   -1.99    0.00000     0.00  LINEAR    4.01655E-01   -50.68    0.00000E+00     0.00
  140.00    30.00      -3.03 -999.99   -3.03    0.00000     0.00  LINEAR    3.56407E-01   -40.99    0.00000E+00     0.00
  145.00    30.00      -4.22 -999.99   -4.22    0.00000     0.00  LINEAR    3.10626E-01   -30.57    0.00000E+00     0.00
  150.00    30.00      -5.61 -999.99   -5.61    0.00000     0.00  LINEAR    2.64824E-01   -19.49    0.00000E+00     0.00
  155.00    30.00      -7.25 -999.99   -7.25    0.00000     0.00  LINEAR    2.19358E-01    -7.84    0.00000E+00     0.00
  160.00    30.00      -9.24 -999.99   -9.24    0.00000     0.00  LINEAR    1.74436E-01     4.28    0.00000E+00     0.00
  165.00    30.00     -11.78 -999.99  -11.78    0.00000     0.00  LINEAR    1.30127E-01    16.79    0.00000E+00     0.00
  170.00    30.00     -15.34 -999.99  -15.34    0.00000     0.00  LINEAR    8.63871E-02    29.58    0.00000E+00     0.00
  175.00    30.00     -21.38 -999.99  -21.38    0.00000     0.00  LINEAR    4.30779E-02    42.57    0.00000E+00     0.00
  180.00    30.00    -999.99 -999.99 -999.99    0.00000     0.00            5.03382E-12  -124.36    0.00000E+00     0.00
    0.00    40.00    -999.99 -999.99 -999.99    0.00000     0.00            0.00000E+00     0.00    0.00000E+00     0.00
    5.00    40.00     -21.22 -999.99  -21.22    0.00000     0.00  LINEAR    4.39131E-02    44.77    0.00000E+00     0.00
   10.00    40.00     -15.18 -999.99  -15.18    0.00000     0.00  LINEAR    8.80368E-02    33.27    0.00000E+00     0.00
   15.00    40.00     -11.62 -999.99  -11.62    0.00000     0.00  LINEAR    1.32550E-01    21.93    0.00000E+00     0.00
   20.00    40.00      -9.08 -999.99   -9.08    0.00000     0.00  LINEAR    1.77570E-01    10.84    0.00000E+00     0.00
   25.00    40.00      -7.10 -999.99   -7.10    0.00000     0.00  LINEAR    2.23123E-01     0.08    0.00000E+00     0.00
   30.00    40.00      -5.47 -999.99   -5.47    0.00000     0.00  LINEAR    2.69120E-01   -10.25    0.00000E+00     0.00
   35.00    40.00      -4.09 -999.99   -4.09    0.00000     0.00  LINEAR    3.15335E-01   -20.10    0.00000E+00     0.00
   40.00    40.00      -2.91 -999.99   -2.91    0.00000     0.00  LINEAR    3.61395E-01   -29.36    0.00000E+00     0.00
   45.00    40.00      -1.88 -999.99   -1.88    0.00000     0.00  LINEAR    4.06776E-01   -37.98    0.00000E+00     0.00
   50.00    40.00      -0.99 -999.99   -0.99    0.00000     0.00  LINEAR    4.50809E-01   -45.89    0.00000E+00     0.00
   55.00    40.00      -0.22 -999.99   -0.22    0.00000     0.00  LINEAR    4.92702E-01   -53.02    0.00000E+00     0.00
   60.00    40.00       0.44 -999.99    0.44    0.00000     0.00  LINEAR    5.31569E-01   -59.32    0.00000E+00     0.00
   65.00    40.00       0.99 -999.99    0.99    0.00000     0.00  LINEAR    5.66479E-01   -64.74    0.00000E+00     0.00
   70.00    40.00       1.44 -999.99    1.44    0.00000     0.00  LINEAR    5.96501E-01   -69.23    0.00000E+00     0.00
   75.00    40.00       1.79 -999.99    1.79    0.00000     0.00  LINEAR    6.20773E-01   -72.77    0.00000E+00     0.00
   80.00    40.00       2.03 -999.99    2.03    0.00000     0.00  LINEAR    6.38548E-01   -75.33    0.00000E+00     0.00
   85.00    40.00       2.18 -999.99    2.18    0.00000     0.00  LINEAR    6.49257E-01   -76.88    0.00000E+00     0.00
   90.00    40.00       2.22 -999.99    2.22    0.00000     0.00  LINEAR    6.52548E-01   -77.41    0.00000E+00     0.00
   95.00    40.00       2.17 -999.99    2.17    0.00000     0.00  LINEAR    6.48310E-01   -76.93    0.00000E+00     0.00
  100.00    40.00       2.01 -999.99    2.01    0.00000     0.00  LINEAR    6.36688E-01   -75.43    0.00000E+00     0.00
  105.00    40.00       1.75 -999.99    1.75    0.00000     0.00  LINEAR    6.18066E-01   -72.93    0.00000E+00     0.00
  110.00    40.00       1.39 -999.99    1.39    0.00000     0.00  LINEAR    5.93044E-01   -69.44    0.00000E+00     0.00
  115.00    40.00       0.93 -999.99    0.93    0.00000     0.00  LINEAR    5.62391E-01   -65.00    0.00000E+00     0.00
  120.00    40.00       0.37 -999.99    0.37    0.00000     0.00  LINEAR    5.26990E-01   -59.63    0.00000E+00     0.00
  125.00    40.00      -0.30 -999.99   -0.30    0.00000     0.00  LINEAR    4.87783E-01   -53.38    0.00000E+00     0.00
  130.00    40.00      -1.09 -999.99   -1.09    0.00000     0.00  LINEAR    4.45710E-01   -46.30    0.00000E+00     0.00
  135.00    40.00      -1.99 -999.99   -1.99    0.00000     0.00  LINEAR    4.01655E-01   -38.44    0.00000E+00     0.00
  140.00    40.00      -3.03 -999.99   -3.03    0.00000     0.00  LINEAR    3.56407E-01   -29.87    0.00000E+00     0.00
  145.00    40.00      -4.22 -999.99   -4.22    0.00000     0.00  LINEAR    3.10626E-01   -20.64    0.00000E+00     0.00
  150.00    40.00      -5.61 -999.99   -5.61    0.00000     0.00  LINEAR    2.64824E-01   -10.83    0.00000E+00     0.00
  155.00    40.00      -7.25 -999.99   -7.25    0.00000     0.00  LINEAR    2.19358E-01    -0.53    0.00000E+00     0.00
  160.00    40.00      -9.24 -999.99   -9.24    0.00000     0.00  LINEAR    1.74436E-01    10.20    0.00000E+00     0.00
  165.00    40.00     -11.78 -999.99  -11.78    0.00000     0.00  LINEAR    1.30127E-01    21.27    0.00000E+00     0.00
  170.00    40.00     -15.34 -999.99  -15.34    0.00000     0.00  LINEAR    8.63871E-02    32.59    0.00000E+00     0.00
  175.00    40.00     -21.38 -999.99  -21.38    0.00000     0.00  LINEAR    4.30779E-02    44.08    0.00000E+00     0.00
  180.00    40.00    -999.99 -999.99 -999.99    0.00000     0.00            5.03382E-12  -124.36    0.00000E+00     0.00
    0.00    50.00    -999.99 -999.99 -999.99    0.00000     0.00            0.00000E+00     0.00    0.00000E+00     0.00
    5.00    50.00     -21.22 -999.99  -21.22    0.00000     0.00  LINEAR    4.39131E-02    46.63    0.00000E+00     0.00
   10.00    50.00     -15.18 -999.99  -15.18    0.00000     0.00  LINEAR    8.80368E-02    36.97    0.00000E+00     0.00
   15.00    50.00     -11.62 -999.99  -11.62    0.00000     0.00  LINEAR    1.32550E-01    27.45    0.00000E+00     0.00
   20.00    50.00      -9.08 -999.99   -9.08    0.00000     0.00  LINEAR    1.77570E-01    18.14    0.00000E+00     0.00
   25.00    50.00      -7.10 -999.99   -7.10    0.00000     0.00  LINEAR    2.23123E-01     9.10    0.00000E+00     0.00
   30.00    50.00      -5.47 -999.99   -5.47    0.00000     0.00  LINEAR    2.69120E-01     0.42    0.00000E+00     0.00
   35.00    50.00      -4.09 -999.99   -4.09    0.00000     0.00  LINEAR    3.15335E-01    -7.85    0.00000E+00     0.00
   40.00    50.00      -2.91 -999.99   -2.91    0.00000     0.00  LINEAR    3.61395E-01   -15.64    0.00000E+00     0.00
   45.00    50.00      -1.88 -999.99   -1.88    0.00000     0.00  LINEAR    4.06776E-01   -22.89    0.00000E+00     0.00
   50.00    50.00      -0.99 -999.99   -0.99    0.00000     0.00  LINEAR    4.50809E-01   -29.54    0.00000E+00     0.00
   55.00    50.00      -0.22 -999.99   -0.22    0.00000     0.00  LINEAR    4.92702E-01   -35.54    0.00000E+00     0.00
   60.00    50.00       0.44 -999.99    0.44    0.00000     0.00  LINEAR    5.31569E-01   -40.83    0.00000E+00     0.00
   65.00    50.00       0.99 -999.99    0.99    0.00000     0.00  LINEAR    5.66479E-01   -45.39    0.00000E+00     0.00
   70.00    50.00       1.44 -999.99    1.44    0.00000     0.00  LINEAR    5.96501E-01   -49.18    0.00000E+00     0.00
   75.00    50.00       1.79 -999.99    1.79    0.00000     0.00  LINEAR    6.20773E-01   -52.16    0.00000E+00     0.00
   80.00    50.00       2.03 -999.99    2.03    0.00000     0.00  LINEAR    6.38548E-01   -54.31    0.00000E+00     0.00
   85.00    50.00       2.18 -999.99    2.18    0.00000     0.00  LINEAR    6.49257E-01   -55.62    0.00000E+00     0.00
   90.00    50.00       2.22 -999.99    2.22    0.00000     0.00  LINEAR    6.52548E-01   -56.07    0.00000E+00     0.00
   95.00    50.00       2.17 -999.99    2.17    0.00000     0.00  LINEAR    6.48310E-01   -55.67    0.00000E+00     0.00
  100.00    50.00       2.01 -999.99    2.01    0.00000     0.00  LINEAR    6.36688E-01   -54.41    0.00000E+00     0.00
  105.00    50.00       1.75 -999.99    1.75    0.00000     0.00  LINEAR    6.18066E-01   -52.32    0.00000E+00     0.00
  110.00    50.00       1.39 -999.99    1.39    0.00000     0.00  LINEAR    5.93044E-01   -49.39    0.00000E+00     0.00
  115.00    50.00       0.93 -999.99    0.93    0.00000     0.00  LINEAR    5.62391E-01   -45.66    0.00000E+00     0.00
  120.00    50.00       0.37 -999.99    0.37    0.00000     0.00  LINEAR    5.26990E-01   -41.15    0.00000E+00     0.00
  125.00    50.00      -0.30 -999.99   -0.30    0.00000     0.00  LINEAR    4.87783E-01   -35.90    0.00000E+00     0.00
  130.00    50.00      -1.09 -999.99   -1.09    0.00000     0.00  LINEAR    4.45710E-01   -29.95    0.00000E+00     0.00
  135.00    50.00      -1.99 -999.99   -1.99    0.00000     0.00  LINEAR    4.01655E-01   -23.35    0.00000E+00     0.00
  140.00    50.00      -3.03 -999.99   -3.03    0.00000     0.00  LINEAR    3.56407E-01   -16.15    0.00000E+00     0.00
  145.00    50.00      -4.22 -999.99   -4.22    0.00000     0.00  LINEAR    3.10626E-01    -8.40    0.00000E+00     0.00
  150.00    50.00      -5.61 -999.99   -5.61    0.00000     0.00  LINEAR    2.64824E-01    -0.16    0.00000E+00     0.00
  155.00    50.00      -7.25 -999.99   -7.25    0.00000     0.00  LINEAR    2.19358E-01     8.49    0.00000E+00     0.00
  160.00    50.00      -9.24 -999.99   -9.24    0.00000     0.00  LINEAR    1.74436E-01    17.50    0.00000E+00     0.00
  165.00    50.00     -11.78 -999.99  -11.78    0.00000     0.00  LINEAR    1.30127E-01    26.79    0.00000E+00     0.00
  170.00    50.00     -15.34 -999.99  -15.34    0.00000     0.00  LINEAR    8.63871E-02    36.30    0.00000E+00     0.00
  175.00    50.00     -21.38 -999.99  -21.38    0.00000     0.00  LINEAR    4.30779E-02    45.94    0.00000E+00     0.00
  180.00    50.00    -999.99 -999.99 -999.99    0.00000     0.00            5.03382E-12  -124.36    0.00000E+00     0.00
    0.00    60.00    -999.99 -999.99 -999.99    0.00000     0.00            0.00000E+00     0.00    0.00000E+00     0.00
    5.00    60.00     -21.22 -999.99  -21.22    0.00000     0.00  LINEAR    4.39131E-02    48.78    0.00000E+00     0.00
   10.00    60.00     -15.18 -999.99  -15.18    0.00000     0.00  LINEAR    8.80368E-02    41.27    0.00000E+00     0.00
   15.00    60.00     -11.62 -999.99  -11.62    0.00000     0.00  LINEAR    1.32550E-01    33.85    0.00000E+00     0.00
   20.00    60.00      -9.08 -999.99   -9.08    0.00000     0.00  LINEAR    1.77570E-01    26.60    0.00000E+00     0.00
   25.00    60.00      -7.10 -999.99   -7.10    0.00000     0.00  LINEAR    2.23123E-01    19.55    0.00000E+00     0.00
   30.00    60.00      -5.47 -999.99   -5.47    0.00000     0.00  LINEAR    2.69120E-01    12.78    0.00000E+00     0.00
   35.00    60.00      -4.09 -999.99   -4.09    0.00000     0.00  LINEAR    3.15335E-01     6.33    0.00000E+00     0.00
   40.00    60.00      -2.91 -999.99   -2.91    0.00000     0.00  LINEAR    3.61395E-01     0.25    0.00000E+00     0.00
   45.00    60.00      -1.88 -999.99   -1.88    0.00000     0.00  LINEAR    4.06776E-01    -5.41    0.00000E+00     0.00
   50.00    60.00      -0.99 -999.99   -0.99    0.00000     0.00  LINEAR    4.50809E-01   -10.60    0.00000E+00     0.00
   55.00    60.00      -0.22 -999.99   -0.22    0.00000     0.00  LINEAR    4.92702E-01   -15.28    0.00000E+00     0.00
   60.00    60.00       0.44 -999.99    0.44    0.00000     0.00  LINEAR    5.31569E-01   -19.42    0.00000E+00     0.00
   65.00    60.00       0.99 -999.99    0.99    0.00000     0.00  LINEAR    5.66479E-01   -22.98    0.00000E+00     0.00
   70.00    60.00       1.44 -999.99    1.44    0.00000     0.00  LINEAR    5.96501E-01   -25.94    0.00000E+00     0.00
   75.00    60.00       1.79 -999.99    1.79    0.00000     0.00  LINEAR    6.20773E-01   -28.27    0.00000E+00     0.00
   80.00    60.00       2.03 -999.99    2.03    0.00000     0.00  LINEAR    6.38548E-01   -29.96    0.00000E+00     0.00
   85.00    60.00       2.18 -999.99    2.18    0.00000     0.00  LINEAR    6.49257E-01   -30.99    0.00000E+00     0.00
   90.00    60.00       2.22 -999.99    2.22    0.00000     0.00  LINEAR    6.52548E-01   -31.35    0.00000E+00     0.00
   95.00    60.00       2.17 -999.99    2.17    0.00000     0.00  LINEAR    6.48310E-01   -31.04    0.00000E+00     0.00
  100.00    60.00       2.01 -999.99    2.01    0.00000     0.00  LINEAR    6.36688E-01   -30.07    0.00000E+00     0.00
  105.00    60.00       1.75 -999.99    1.75    0.00000     0.00  LINEAR    6.18066E-01   -28.43    0.00000E+00     0.00
  110.00    60.00       1.39 -999.99    1.39    0.00000     0.00  LINEAR    5.93044E-01   -26.15    0.00000E+00     0.00
  115.00    60.00       0.93 -999.99    0.93    0.00000     0.00  LINEAR    5.62391E-01   -23.25    0.00000E+00     0.00
  120.00    60.00       0.37 -999.99    0.37    0.00000     0.00  LINEAR    5.26990E-01   -19.74    0.00000E+00     0.00
  125.00    60.00      -0.30 -999.99   -0.30    0.00000     0.00  LINEAR    4.87783E-01   -15.65    0.00000E+00     0.00
  130.00    60.00      -1.09 -999.99   -1.09    0.00000     0.00  LINEAR    4.45710E-01   -11.01    0.00000E+00     0.00
  135.00    60.00      -1.99 -999.99   -1.99    0.00000     0.00  LINEAR    4.01655E-01    -5.87    0.00000E+00     0.00
  140.00    60.00      -3.03 -999.99   -3.03    0.00000     0.00  LINEAR    3.56407E-01    -0.25    0.00000E+00     0.00
  145.00    60.00      -4.22 -999.99   -4.22    0.00000     0.00  LINEAR    3.10626E-01     5.78    0.00000E+00     0.00
  150.00    60.00      -5.61 -999.99   -5.61    0.00000     0.00  LINEAR    2.64824E-01    12.20    0.00000E+00     0.00
  155.00    60.00      -7.25 -999.99   -7.25    0.00000     0.00  LINEAR    2.19358E-01    18.94    0.00000E+00     0.00
  160.00    60.00      -9.24 -999.99   -9.24    0.00000     0.00  LINEAR    1.74436E-01    25.96    0.00000E+00     0.00
  165.00    60.00     -11.78 -999.99  -11.78    0.00000     0.00  LINEAR    1.30127E-01    33.19    0.00000E+00     0.00
  170.00    60.00     -15.34 -999.99  -15.34    0.00000     0.00  LINEAR    8.63871E-02    40.59    0.00000E+00     0.00
  175.00    60.00     -21.38 -999.99  -21.38    0.00000     0.00  LINEAR    4.30779E-02    48.09    0.00000E+00     0.00
  180.00    60.00    -999.99 -999.99 -999.99    0.00000     0.00            5.03382E-12  -124.36    0.00000E+00     0.00
    0.00    70.00    -999.99 -999.99 -999.99    0.00000     0.00            0.00000E+00     0.00    0.00000E+00     0.00
    5.00    70.00     -21.22 -999.99  -21.22    0.00000     0.00  LINEAR    4.39131E-02    51.16    0.00000E+00     0.00
   10.00    70.00     -15.18 -999.99  -15.18    0.00000     0.00  LINEAR    8.80368E-02    46.02    0.00000E+00     0.00
   15.00    70.00     -11.62 -999.99  -11.62    0.00000     0.00  LINEAR    1.32550E-01    40.93    0.00000E+00     0.00
   20.00    70.00      -9.08 -999.99   -9.08    0.00000     0.00  LINEAR    1.77570E-01    35.95    0.00000E+00     0.00
   25.00    70.00      -7.10 -999.99   -7.10    0.00000     0.00  LINEAR    2.23123E-01    31.11    0.00000E+00     0.00
   30.00    70.00      -5.47 -999.99   -5.47    0.00000     0.00  LINEAR    2.69120E-01    26.46    0.00000E+00     0.00
   35.00    70.00      -4.09 -999.99   -4.09    0.00000     0.00  LINEAR    3.15335E-01    22.02    0.00000E+00     0.00
   40.00    70.00      -2.91 -999.99   -2.91    0.00000     0.00  LINEAR    3.61395E-01    17.83    0.00000E+00     0.00
   45.00    70.00      -1.88 -999.99   -1.88    0.00000     0.00  LINEAR    4.06776E-01    13.93    0.00000E+00     0.00
   50.00    70.00      -0.99 -999.99   -0.99    0.00000     0.00  LINEAR    4.50809E-01    10.36    0.00000E+00     0.00
   55.00    70.00      -0.22 -999.99   -0.22    0.00000     0.00  LINEAR    4.92702E-01     7.13    0.00000E+00     0.00
   60.00    70.00       0.44 -999.99    0.44    0.00000     0.00  LINEAR    5.31569E-01     4.27    0.00000E+00     0.00
   65.00    70.00       0.99 -999.99    0.99    0.00000     0.00  LINEAR    5.66479E-01     1.81    0.00000E+00     0.00
   70.00    70.00       1.44 -999.99    1.44    0.00000     0.00  LINEAR    5.96501E-01    -0.24    0.00000E+00     0.00
   75.00    70.00       1.79 -999.99    1.79    0.00000     0.00  LINEAR    6.20773E-01    -1.85    0.00000E+00     0.00
   80.00    70.00       2.03 -999.99    2.03    0.00000     0.00  LINEAR    6.38548E-01    -3.02    0.00000E+00     0.00
   85.00    70.00       2.18 -999.99    2.18    0.00000     0.00  LINEAR    6.49257E-01    -3.74    0.00000E+00     0.00
   90.00    70.00       2.22 -999.99    2.22    0.00000     0.00  LINEAR    6.52548E-01    -3.99    0.00000E+00     0.00
   95.00    70.00       2.17 -999.99    2.17    0.00000     0.00  LINEAR    6.48310E-01    -3.79    0.00000E+00     0.00
  100.00    70.00       2.01 -999.99    2.01    0.00000     0.00  LINEAR    6.36688E-01    -3.13    0.00000E+00     0.00
  105.00    70.00       1.75 -999.99    1.75    0.00000     0.00  LINEAR    6.18066E-01    -2.01    0.00000E+00     0.00
  110.00    70.00       1.39 -999.99    1.39    0.00000     0.00  LINEAR    5.93044E-01    -0.45    0.00000E+00     0.00
  115.00    70.00       0.93 -999.99    0.93    0.00000     0.00  LINEAR    5.62391E-01     1.54    0.00000E+00     0.00
  120.00    70.00       0.37 -999.99    0.37    0.00000     0.00  LINEAR    5.26990E-01     3.95    0.00000E+00     0.00
  125.00    70.00      -0.30 -999.99   -0.30    0.00000     0.00  LINEAR    4.87783E-01     6.76    0.00000E+00     0.00
  130.00    70.00      -1.09 -999.99   -1.09    0.00000     0.00  LINEAR    4.45710E-01     9.94    0.00000E+00     0.00
  135.00    70.00      -1.99 -999.99   -1.99    0.00000     0.00  LINEAR    4.01655E-01    13.48    0.00000E+00     0.00
  140.00    70.00      -3.03 -999.99   -3.03    0.00000     0.00  LINEAR    3.56407E-01    17.33    0.00000E+00     0.00
  145.00    70.00      -4.22 -999.99   -4.22    0.00000     0.00  LINEAR    3.10626E-01    21.47    0.00000E+00     0.00
  150.00    70.00      -5.61 -999.99   -5.61    0.00000     0.00  LINEAR    2.64824E-01    25.88    0.00000E+00     0.00
  155.00    70.00      -7.25 -999.99   -7.25    0.00000     0.00  LINEAR    2.19358E-01    30.50    0.00000E+00     0.00
  160.00    70.00      -9.24 -999.99   -9.24    0.00000     0.00  LINEAR    1.74436E-01    35.31    0.00000E+00     0.00
  165.00    70.00     -11.78 -999.99  -11.78    0.00000     0.00  LINEAR    1.30127E-01    40.27    0.00000E+00     0.00
  170.00    70.00     -15.34 -999.99  -15.34    0.00000     0.00  LINEAR    8.63871E-02    45.34    0.00000E+00     0.00
  175.00    70.00     -21.38 -999.99  -21.38    0.00000     0.00  LINEAR    4.30779E-02    50.48    0.00000E+00     0.00
  180.00    70.00    -999.99 -999.99 -999.99    0.00000     0.00            5.03382E-12  -124.36    0.00000E+00     0.00
    0.00    80.00    -999.99 -999.99 -999.99    0.00000     0.00            0.00000E+00     0.00    0.00000E+00     0.00
    5.00    80.00     -21.22 -999.99  -21.22    0.00000     0.00  LINEAR    4.39131E-02    53.71    0.00000E+00     0.00
   10.00    80.00     -15.18 -999.99  -15.18    0.00000     0.00  LINEAR    8.80368E-02    51.08    0.00000E+00     0.00
   15.00    80.00     -11.62 -999.99  -11.62    0.00000     0.00  LINEAR    1.32550E-01    48.48    0.00000E+00     0.00
   20.00    80.00      -9.08 -999.99   -9.08    0.00000     0.00  LINEAR    1.77570E-01    45.92    0.00000E+00     0.00
   25.00    80.00      -7.10 -999.99   -7.10    0.00000     0.00  LINEAR    2.23123E-01    43.44    0.00000E+00     0.00
   30.00    80.00      -5.47 -999.99   -5.47    0.00000     0.00  LINEAR    2.69120E-01    41.03    0.00000E+00     0.00
   35.00    80.00      -4.09 -999.99   -4.09    0.00000     0.00  LINEAR    3.15335E-01    38.74    0.00000E+00     0.00
   40.00    80.00      -2.91 -999.99   -2.91    0.00000     0.00  LINEAR    3.61395E-01    36.57    0.00000E+00     0.00
   45.00    80.00      -1.88 -999.99   -1.88    0.00000     0.00  LINEAR    4.06776E-01    34.55    0.00000E+00     0.00
   50.00    80.00      -0.99 -999.99   -0.99    0.00000     0.00  LINEAR    4.50809E-01    32.69    0.00000E+00     0.00
   55.00    80.00      -0.22 -999.99   -0.22    0.00000     0.00  LINEAR    4.92702E-01    31.01    0.00000E+00     0.00
   60.00    80.00       0.44 -999.99    0.44    0.00000     0.00  LINEAR    5.31569E-01    29.52    0.00000E+00     0.00
   65.00    80.00       0.99 -999.99    0.99    0.00000     0.00  LINEAR    5.66479E-01    28.23    0.00000E+00     0.00
   70.00    80.00       1.44 -999.99    1.44    0.00000     0.00  LINEAR    5.96501E-01    27.16    0.00000E+00     0.00
   75.00    80.00       1.79 -999.99    1.79    0.00000     0.00  LINEAR    6.20773E-01    26.31    0.00000E+00     0.00
   80.00    80.00       2.03 -999.99    2.03    0.00000     0.00  LINEAR    6.38548E-01    25.69    0.00000E+00     0.00
   85.00    80.00       2.18 -999.99    2.18    0.00000     0.00  LINEAR    6.49257E-01    25.31    0.00000E+00     0.00
   90.00    80.00       2.22 -999.99    2.22    0.00000     0.00  LINEAR    6.52548E-01    25.16    0.00000E+00     0.00
   95.00    80.00       2.17 -999.99    2.17    0.00000     0.00  LINEAR    6.48310E-01    25.25    0.00000E+00     0.00
  100.00    80.00       2.01 -999.99    2.01    0.00000     0.00  LINEAR    6.36688E-01    25.59    0.00000E+00     0.00
  105.00    80.00       1.75 -999.99    1.75    0.00000     0.00  LINEAR    6.18066E-01    26.15    0.00000E+00     0.00
  110.00    80.00       1.39 -999.99    1.39    0.00000     0.00  LINEAR    5.93044E-01    26.95    0.00000E+00     0.00
  115.00    80.00       0.93 -999.99    0.93    0.00000     0.00  LINEAR    5.62391E-01    27.97    0.00000E+00     0.00
  120.00    80.00       0.37 -999.99    0.37    0.00000     0.00  LINEAR    5.26990E-01    29.20    0.00000E+00     0.00
  125.00    80.00      -0.30 -999.99   -0.30    0.00000     0.00  LINEAR    4.87783E-01    30.64    0.00000E+00     0.00
  130.00    80.00      -1.09 -999.99   -1.09    0.00000     0.00  LINEAR    4.45710E-01    32.28    0.00000E+00     0.00
  135.00    80.00      -1.99 -999.99   -1.99    0.00000     0.00  LINEAR    4.01655E-01    34.09    0.00000E+00     0.00
  140.00    80.00      -3.03 -999.99   -3.03    0.00000     0.00  LINEAR    3.56407E-01    36.07    0.00000E+00     0.00
  145.00    80.00      -4.22 -999.99   -4.22    0.00000     0.00  LINEAR    3.10626E-01    38.20    0.00000E+00     0.00
  150.00    80.00      -5.61 -999.99   -5.61    0.00000     0.00  LINEAR    2.64824E-01    40.45    0.00000E+00     0.00
  155.00    80.00      -7.25 -999.99   -7.25    0.00000     0.00  LINEAR    2.19358E-01    42.82    0.00000E+00     0.00
  160.00    80.00      -9.24 -999.99   -9.24    0.00000     0.00  LINEAR    1.74436E-01    45.28    0.00000E+00     0.00
  165.00    80.00     -11.78 -999.99  -11.78    0.00000     0.00  LINEAR    1.30127E-01    47.82    0.00000E+00     0.00
  170.00    80.00     -15.34 -999.99  -15.34    0.00000     0.00  LINEAR    8.63871E-02    50.40    0.00000E+00     0.00
  175.00    80.00     -21.38 -999.99  -21.38    0.00000     0.00  LINEAR    4.30779E-02    53.02    0.00000E+00     0.00
  180.00    80.00    -999.99 -999.99 -999.99    0.00000     0.00            5.03382E-12  -124.36    0.00000E+00     0.00
    0.00    90.00    -999.99 -999.99 -999.99    0.00000     0.00            0.00000E+00     0.00    0.00000E+00     0.00
    5.00    90.00     -21.22 -999.99  -21.22    0.00000     0.00  LINEAR    4.39131E-02    56.33    0.00000E+00     0.00
   10.00    90.00     -15.18 -999.99  -15.18    0.00000     0.00  LINEAR    8.80368E-02    56.30    0.00000E+00     0.00
   15.00    90.00     -11.62 -999.99  -11.62    0.00000     0.00  LINEAR    1.32550E-01    56.26    0.00000E+00     0.00
   20.00    90.00      -9.08 -999.99   -9.08    0.00000     0.00  LINEAR    1.77570E-01    56.21    0.00000E+00     0.00
   25.00    90.00      -7.10 -999.99   -7.10    0.00000     0.00  LINEAR    2.23123E-01    56.14    0.00000E+00     0.00
   30.00    90.00      -5.47 -999.99   -5.47    0.00000     0.00  LINEAR    2.69120E-01    56.07    0.00000E+00     0.00
   35.00    90.00      -4.09 -999.99   -4.09    0.00000     0.00  LINEAR    3.15335E-01    55.99    0.00000E+00     0.00
   40.00    90.00      -2.91 -999.99   -2.91    0.00000     0.00  LINEAR    3.61395E-01    55.90    0.00000E+00     0.00
   45.00    90.00      -1.88 -999.99   -1.88    0.00000     0.00  LINEAR    4.06776E-01    55.81    0.00000E+00     0.00
   50.00    90.00      -0.99 -999.99   -0.99    0.00000     0.00  LINEAR    4.50809E-01    55.72    0.00000E+00     0.00
   55.00    90.00      -0.22 -999.99   -0.22    0.00000     0.00  LINEAR    4.92702E-01    55.64    0.00000E+00     0.00
   60.00    90.00       0.44 -999.99    0.44    0.00000     0.00  LINEAR    5.31569E-01    55.56    0.00000E+00     0.00
   65.00    90.00       0.99 -999.99    0.99    0.00000     0.00  LINEAR    5.66479E-01    55.48    0.00000E+00     0.00
   70.00    90.00       1.44 -999.99    1.44    0.00000     0.00  LINEAR    5.96501E-01    55.41    0.00000E+00     0.00
   75.00    90.00       1.79 -999.99    1.79    0.00000     0.00  LINEAR    6.20773E-01    55.35    0.00000E+00     0.00
   80.00    90.00       2.03 -999.99    2.03    0.00000     0.00  LINEAR    6.38548E-01    55.30    0.00000E+00     0.00
   85.00    90.00       2.18 -999.99    2.18    0.00000     0.00  LINEAR    6.49257E-01    55.26    0.00000E+00     0.00
   90.00    90.00       2.22 -999.99    2.22    0.00000     0.00  LINEAR    6.52548E-01    55.23    0.00000E+00     0.00
   95.00    90.00       2.17 -999.99    2.17    0.00000     0.00  LINEAR    6.48310E-01    55.21    0.00000E+00     0.00
  100.00    90.00       2.01 -999.99    2.01    0.00000     0.00  LINEAR    6.36688E-01    55.20    0.00000E+00     0.00
  105.00    90.00       1.75 -999.99    1.75    0.00000     0.00  LINEAR    6.18066E-01    55.19    0.00000E+00     0.00
  110.00    90.00       1.39 -999.99    1.39    0.00000     0.00  LINEAR    5.93044E-01    55.20    0.00000E+00     0.00
  115.00    90.00       0.93 -999.99    0.93    0.00000     0.00  LINEAR    5.62391E-01    55.22    0.00000E+00     0.00
  120.00    90.00       0.37 -999.99    0.37    0.00000     0.00  LINEAR    5.26990E-01    55.24    0.00000E+00     0.00
  125.00    90.00      -0.30 -999.99   -0.30    0.00000     0.00  LINEAR    4.87783E-01    55.27    0.00000E+00     0.00
  130.00    90.00      -1.09 -999.99   -1.09    0.00000     0.00  LINEAR    4.45710E-01    55.31    0.00000E+00     0.00
  135.00    90.00      -1.99 -999.99   -1.99    0.00000     0.00  LINEAR    4.01655E-01    55.35    0.00000E+00     0.00
  140.00    90.00      -3.03 -999.99   -3.03    0.00000     0.00  LINEAR    3.56407E-01    55.40    0.00000E+00     0.00
  145.00    90.00      -4.22 -999.99   -4.22    0.00000     0.00  LINEAR    3.10626E-01    55.44    0.00000E+00     0.00
  150.00    90.00      -5.61 -999.99   -5.61    0.00000     0.00  LINEAR    2.64824E-01    55.49    0.00000E+00     0.00
  155.00    90.00      -7.25 -999.99   -7.25    0.00000     0.00  LINEAR    2.19358E-01    55.53    0.00000E+00     0.00
  160.00    90.00      -9.24 -999.99   -9.24    0.00000     0.00  LINEAR    1.74436E-01    55.57    0.00000E+00     0.00
  165.00    90.00     -11.78 -999.99  -11.78    0.00000     0.00  LINEAR    1.30127E-01    55.60    0.00000E+00     0.00
  170.00    90.00     -15.34 -999.99  -15.34    0.00000     0.00  LINEAR    8.63871E-02    55.62    0.00000E+00     0.00
  175.00    90.00     -21.38 -999.99  -21.38    0.00000     0.00  LINEAR    4.30779E-02    55.64    0.00000E+00     0.00
  180.00    90.00    -999.99 -999.99 -999.99    0.00000     0.00            5.03382E-12  -124.36    0.00000E+00     0.00
    0.00   100.00    -999.99 -999.99 -999.99    0.00000     0.00            0.00000E+00     0.00    0.00000E+00     0.00
    5.00   100.00     -21.22 -999.99  -21.22    0.00000     0.00  LINEAR    4.39131E-02    58.95    0.00000E+00     0.00
   10.00   100.00     -15.18 -999.99  -15.18    0.00000     0.00  LINEAR    8.80368E-02    61.52    0.00000E+00     0.00
   15.00   100.00     -11.62 -999.99  -11.62    0.00000     0.00  LINEAR    1.32550E-01    64.04    0.00000E+00     0.00
   20.00   100.00      -9.08 -999.99   -9.08    0.00000     0.00  LINEAR    1.77570E-01    66.49    0.00000E+00     0.00
   25.00   100.00      -7.10 -999.99   -7.10    0.00000     0.00  LINEAR    2.23123E-01    68.85    0.00000E+00     0.00
   30.00   100.00      -5.47 -999.99   -5.47    0.00000     0.00  LINEAR    2.69120E-01    71.10    0.00000E+00     0.00
   35.00   100.00      -4.09 -999.99   -4.09    0.00000     0.00  LINEAR    3.15335E-01    73.23    0.00000E+00     0.00
   40.00   100.00      -2.91 -999.99   -2.91    0.00000     0.00  LINEAR    3.61395E-01    75.23    0.00000E+00     0.00
   45.00   100.00      -1.88 -999.99   -1.88    0.00000     0.00  LINEAR    4.06776E-01    77.07    0.00000E+00     0.00
   50.00   100.00      -0.99 -999.99   -0.99    0.00000     0.00  LINEAR    4.50809E-01    78.76    0.00000E+00     0.00
   55.00   100.00      -0.22 -999.99   -0.22    0.00000     0.00  LINEAR    4.92702E-01    80.27    0.00000E+00     0.00
   60.00   100.00       0.44 -999.99    0.44    0.00000     0.00  LINEAR    5.31569E-01    81.60    0.00000E+00     0.00
   65.00   100.00       0.99 -999.99    0.99    0.00000     0.00  LINEAR    5.66479E-01    82.73    0.00000E+00     0.00
   70.00   100.00       1.44 -999.99    1.44    0.00000     0.00  LINEAR    5.96501E-01    83.67    0.00000E+00     0.00
   75.00   100.00       1.79 -999.99    1.79    0.00000     0.00  LINEAR    6.20773E-01    84.40    0.00000E+00     0.00
   80.00   100.00       2.03 -999.99    2.03    0.00000     0.00  LINEAR    6.38548E-01    84.91    0.00000E+00     0.00
   85.00   100.00       2.18 -999.99    2.18    0.00000     0.00  LINEAR    6.49257E-01    85.22    0.00000E+00     0.00
   90.00   100.00       2.22 -999.99    2.22    0.00000     0.00  LINEAR    6.52548E-01    85.30    0.00000E+00     0.00
   95.00   100.00       2.17 -999.99    2.17    0.00000     0.00  LINEAR    6.48310E-01    85.16    0.00000E+00     0.00
  100.00   100.00       2.01 -999.99    2.01    0.00000     0.00  LINEAR    6.36688E-01    84.81    0.00000E+00     0.00
  105.00   100.00       1.75 -999.99    1.75    0.00000     0.00  LINEAR    6.18066E-01    84.24    0.00000E+00     0.00
  110.00   100.00       1.39 -999.99    1.39    0.00000     0.00  LINEAR    5.93044E-01    83.46    0.00000E+00     0.00
  115.00   100.00       0.93 -999.99    0.93    0.00000     0.00  LINEAR    5.62391E-01    82.47    0.00000E+00     0.00
  120.00   100.00       0.37 -999.99    0.37    0.00000     0.00  LINEAR    5.26990E-01    81.28    0.00000E+00     0.00
  125.00   100.00      -0.30 -999.99   -0.30    0.00000     0.00  LINEAR    4.87783E-01    79.90    0.00000E+00     0.00
  130.00   100.00      -1.09 -999.99   -1.09    0.00000     0.00  LINEAR    4.45710E-01    78.34    0.00000E+00     0.00
  135.00   100.00      -1.99 -999.99   -1.99    0.00000     0.00  LINEAR    4.01655E-01    76.61    0.00000E+00     0.00
  140.00   100.00      -3.03 -999.99   -3.03    0.00000     0.00  LINEAR    3.56407E-01    74.72    0.00000E+00     0.00
  145.00   100.00      -4.22 -999.99   -4.22    0.00000     0.00  LINEAR    3.10626E-01    72.69    0.00000E+00     0.00
  150.00   100.00      -5.61 -999.99   -5.61    0.00000     0.00  LINEAR    2.64824E-01    70.52    0.00000E+00     0.00
  155.00   100.00      -7.25 -999.99   -7.25    0.00000     0.00  LINEAR    2.19358E-01    68.24    0.00000E+00     0.00
  160.00   100.00      -9.24 -999.99   -9.24    0.00000     0.00  LINEAR    1.74436E-01    65.85    0.00000E+00     0.00
  165.00   100.00     -11.78 -999.99  -11.78    0.00000     0.00  LINEAR    1.30127E-01    63.38    0.00000E+00     0.00
  170.00   100.00     -15.34 -999.99  -15.34    0.00000     0.00  LINEAR    8.63871E-02    60.84    0.00000E+00     0.00
  175.00   100.00     -21.38 -999.99  -21.38    0.00000     0.00  LINEAR    4.30779E-02    58.26    0.00000E+00     0.00
  180.00   100.00    -999.99 -999.99 -999.99    0.00000     0.00            5.03382E-12  -124.36    0.00000E+00     0.00
    0.00   110.00    -999.99 -999.99 -999.99    0.00000     0.00            0.00000E+00     0.00    0.00000E+00     0.00
    5.00   110.00     -21.22 -999.99  -21.22    0.00000     0.00  LINEAR    4.39131E-02    61.49    0.00000E+00     0.00
   10.00   110.00     -15.18 -999.99  -15.18    0.00000     0.00  LINEAR    8.80368E-02    66.59    0.00000E+00     0.00
   15.00   110.00     -11.62 -999.99  -11.62    0.00000     0.00  LINEAR    1.32550E-01    71.59    0.00000E+00     0.00
   20.00   110.00      -9.08 -999.99   -9.08    0.00000     0.00  LINEAR    1.77570E-01    76.46    0.00000E+00     0.00
   25.00   110.00      -7.10 -999.99   -7.10    0.00000     0.00  LINEAR    2.23123E-01    81.17    0.00000E+00     0.00
   30.00   110.00      -5.47 -999.99   -5.47    0.00000     0.00  LINEAR    2.69120E-01    85.68    0.00000E+00     0.00
   35.00   110.00      -4.09 -999.99   -4.09    0.00000     0.00  LINEAR    3.15335E-01    89.95    0.00000E+00     0.00
   40.00   110.00      -2.91 -999.99   -2.91    0.00000     0.00  LINEAR    3.61395E-01    93.97    0.00000E+00     0.00
   45.00   110.00      -1.88 -999.99   -1.88    0.00000     0.00  LINEAR    4.06776E-01    97.69    0.00000E+00     0.00
   50.00   110.00      -0.99 -999.99   -0.99    0.00000     0.00  LINEAR    4.50809E-01   101.09    0.00000E+00     0.00
   55.00   110.00      -0.22 -999.99   -0.22    0.00000     0.00  LINEAR    4.92702E-01   104.15    0.00000E+00     0.00
   60.00   110.00       0.44 -999.99    0.44    0.00000     0.00  LINEAR    5.31569E-01   106.85    0.00000E+00     0.00
   65.00   110.00       0.99 -999.99    0.99    0.00000     0.00  LINEAR    5.66479E-01   109.16    0.00000E+00     0.00
   70.00   110.00       1.44 -999.99    1.44    0.00000     0.00  LINEAR    5.96501E-01   111.06    0.00000E+00     0.00
   75.00   110.00       1.79 -999.99    1.79    0.00000     0.00  LINEAR    6.20773E-01   112.56    0.00000E+00     0.00
   80.00   110.00       2.03 -999.99    2.03    0.00000     0.00  LINEAR    6.38548E-01   113.63    0.00000E+00     0.00
   85.00   110.00       2.18 -999.99    2.18    0.00000     0.00  LINEAR    6.49257E-01   114.26    0.00000E+00     0.00
   90.00   110.00       2.22 -999.99    2.22    0.00000     0.00  LINEAR    6.52548E-01   114.45    0.00000E+00     0.00
   95.00   110.00       2.17 -999.99    2.17    0.00000     0.00  LINEAR    6.48310E-01   114.21    0.00000E+00     0.00
  100.00   110.00       2.01 -999.99    2.01    0.00000     0.00  LINEAR    6.36688E-01   113.52    0.00000E+00     0.00
  105.00   110.00       1.75 -999.99    1.75    0.00000     0.00  LINEAR    6.18066E-01   112.40    0.00000E+00     0.00
  110.00   110.00       1.39 -999.99    1.39    0.00000     0.00  LINEAR    5.93044E-01   110.85    0.00000E+00     0.00
  115.00   110.00       0.93 -999.99    0.93    0.00000     0.00  LINEAR    5.62391E-01   108.89    0.00000E+00     0.00
  120.00   110.00       0.37 -999.99    0.37    0.00000     0.00  LINEAR    5.26990E-01   106.53    0.00000E+00     0.00
  125.00   110.00      -0.30 -999.99   -0.30    0.00000     0.00  LINEAR    4.87783E-01   103.79    0.00000E+00     0.00
  130.00   110.00      -1.09 -999.99   -1.09    0.00000     0.00  LINEAR    4.45710E-01   100.68    0.00000E+00     0.00
  135.00   110.00      -1.99 -999.99   -1.99    0.00000     0.00  LINEAR    4.01655E-01    97.23    0.00000E+00     0.00
  140.00   110.00      -3.03 -999.99   -3.03    0.00000     0.00  LINEAR    3.56407E-01    93.46    0.00000E+00     0.00
  145.00   110.00      -4.22 -999.99   -4.22    0.00000     0.00  LINEAR    3.10626E-01    89.41    0.00000E+00     0.00
  150.00   110.00      -5.61 -999.99   -5.61    0.00000     0.00  LINEAR    2.64824E-01    85.10    0.00000E+00     0.00
  155.00   110.00      -7.25 -999.99   -7.25    0.00000     0.00  LINEAR    2.19358E-01    80.56    0.00000E+00     0.00
  160.00   110.00      -9.24 -999.99   -9.24    0.00000     0.00  LINEAR    1.74436E-01    75.82    0.00000E+00     0.00
  165.00   110.00     -11.78 -999.99  -11.78    0.00000     0.00  LINEAR    1.30127E-01    70.93    0.00000E+00     0.00
  170.00   110.00     -15.34 -999.99  -15.34    0.00000     0.00  LINEAR    8.63871E-02    65.91    0.00000E+00     0.00
  175.00   110.00     -21.38 -999.99  -21.38    0.00000     0.00  LINEAR    4.30779E-02    60.80    0.00000E+00     0.00
  180.00   110.00    -999.99 -999.99 -999.99    0.00000     0.00            5.03382E-12  -124.36    0.00000E+00     0.00
    0.00   120.00    -999.99 -999.99 -999.99    0.00000     0.00            0.00000E+00     0.00    0.00000E+00     0.00
    5.00   120.00     -21.22 -999.99  -21.22    0.00000     0.00  LINEAR    4.39131E-02    63.87    0.00000E+00     0.00
   10.00   120.00     -15.18 -999.99  -15.18    0.00000     0.00  LINEAR    8.80368E-02    71.34    0.00000E+00     0.00
   15.00   120.00     -11.62 -999.99  -11.62    0.00000     0.00  LINEAR    1.32550E-01    78.67    0.00000E+00     0.00
   20.00   120.00      -9.08 -999.99   -9.08    0.00000     0.00  LINEAR    1.77570E-01    85.82    0.00000E+00     0.00
   25.00   120.00      -7.10 -999.99   -7.10    0.00000     0.00  LINEAR    2.23123E-01    92.73    0.00000E+00     0.00
   30.00   120.00      -5.47 -999.99   -5.47    0.00000     0.00  LINEAR    2.69120E-01    99.36    0.00000E+00     0.00
   35.00   120.00      -4.09 -999.99   -4.09    0.00000     0.00  LINEAR    3.15335E-01   105.64    0.00000E+00     0.00
   40.00   120.00      -2.91 -999.99   -2.91    0.00000     0.00  LINEAR    3.61395E-01   111.55    0.00000E+00     0.00
   45.00   120.00      -1.88 -999.99   -1.88    0.00000     0.00  LINEAR    4.06776E-01   117.03    0.00000E+00     0.00
   50.00   120.00      -0.99 -999.99   -0.99    0.00000     0.00  LINEAR    4.50809E-01   122.05    0.00000E+00     0.00
   55.00   120.00      -0.22 -999.99   -0.22    0.00000     0.00  LINEAR    4.92702E-01   126.56    0.00000E+00     0.00
   60.00   120.00       0.44 -999.99    0.44    0.00000     0.00  LINEAR    5.31569E-01   130.54    0.00000E+00     0.00
   65.00   120.00       0.99 -999.99    0.99    0.00000     0.00  LINEAR    5.66479E-01   133.95    0.00000E+00     0.00
   70.00   120.00       1.44 -999.99    1.44    0.00000     0.00  LINEAR    5.96501E-01   136.77    0.00000E+00     0.00
   75.00   120.00       1.79 -999.99    1.79    0.00000     0.00  LINEAR    6.20773E-01   138.98    0.00000E+00     0.00
   80.00   120.00       2.03 -999.99    2.03    0.00000     0.00  LINEAR    6.38548E-01   140.57    0.00000E+00     0.00
   85.00   120.00       2.18 -999.99    2.18    0.00000     0.00  LINEAR    6.49257E-01   141.51    0.00000E+00     0.00
   90.00   120.00       2.22 -999.99    2.22    0.00000     0.00  LINEAR    6.52548E-01   141.81    0.00000E+00     0.00
   95.00   120.00       2.17 -999.99    2.17    0.00000     0.00  LINEAR    6.48310E-01   141.46    0.00000E+00     0.00
  100.00   120.00       2.01 -999.99    2.01    0.00000     0.00  LINEAR    6.36688E-01   140.46    0.00000E+00     0.00
  105.00   120.00       1.75 -999.99    1.75    0.00000     0.00  LINEAR    6.18066E-01   138.82    0.00000E+00     0.00
  110.00   120.00       1.39 -999.99    1.39    0.00000     0.00  LINEAR    5.93044E-01   136.56    0.00000E+00     0.00
  115.00   120.00       0.93 -999.99    0.93    0.00000     0.00  LINEAR    5.62391E-01   133.68    0.00000E+00     0.00
  120.00   120.00       0.37 -999.99    0.37    0.00000     0.00  LINEAR    5.26990E-01   130.22    0.00000E+00     0.00
  125.00   120.00      -0.30 -999.99   -0.30    0.00000     0.00  LINEAR    4.87783E-01   126.19    0.00000E+00     0.00
  130.00   120.00      -1.09 -999.99   -1.09    0.00000     0.00  LINEAR    4.45710E-01   121.63    0.00000E+00     0.00
  135.00   120.00      -1.99 -999.99   -1.99    0.00000     0.00  LINEAR    4.01655E-01   116.57    0.00000E+00     0.00
  140.00   120.00      -3.03 -999.99   -3.03    0.00000     0.00  LINEAR    3.56407E-01   111.05    0.00000E+00     0.00
  145.00   120.00      -4.22 -999.99   -4.22    0.00000     0.00  LINEAR    3.10626E-01   105.10    0.00000E+00     0.00
  150.00   120.00      -5.61 -999.99   -5.61    0.00000     0.00  LINEAR    2.64824E-01    98.78    0.00000E+00     0.00
  155.00   120.00      -7.25 -999.99   -7.25    0.00000     0.00  LINEAR    2.19358E-01    92.12    0.00000E+00     0.00
  160.00   120.00      -9.24 -999.99   -9.24    0.00000     0.00  LINEAR    1.74436E-01    85.18    0.00000E+00     0.00
  165.00   120.00     -11.78 -999.99  -11.78    0.00000     0.00  LINEAR    1.30127E-01    78.01    0.00000E+00     0.00
  170.00   120.00     -15.34 -999.99  -15.34    0.00000     0.00  LINEAR    8.63871E-02    70.66    0.00000E+00     0.00
  175.00   120.00     -21.38 -999.99  -21.38    0.00000     0.00  LINEAR    4.30779E-02    63.18    0.00000E+00     0.00
  180.00   120.00    -999.99 -999.99 -999.99    0.00000     0.00            5.03382E-12  -124.36    0.00000E+00     0.00
    0.00   130.00    -999.99 -999.99 -999.99    0.00000     0.00            0.00000E+00     0.00    0.00000E+00     0.00
    5.00   130.00     -21.22 -999.99  -21.22    0.00000     0.00  LINEAR    4.39131E-02    66.03    0.00000E+00     0.00
   10.00   130.00     -15.18 -999.99  -15.18    0.00000     0.00  LINEAR    8.80368E-02    75.63    0.00000E+00     0.00
   15.00   130.00     -11.62 -999.99  -11.62    0.00000     0.00  LINEAR    1.32550E-01    85.07    0.00000E+00     0.00
   20.00   130.00      -9.08 -999.99   -9.08    0.00000     0.00  LINEAR    1.77570E-01    94.28    0.00000E+00     0.00
   25.00   130.00      -7.10 -999.99   -7.10    0.00000     0.00  LINEAR    2.23123E-01   103.18    0.00000E+00     0.00
   30.00   130.00      -5.47 -999.99   -5.47    0.00000     0.00  LINEAR    2.69120E-01   111.72    0.00000E+00     0.00
   35.00   130.00      -4.09 -999.99   -4.09    0.00000     0.00  LINEAR    3.15335E-01   119.83    0.00000E+00     0.00
   40.00   130.00      -2.91 -999.99   -2.91    0.00000     0.00  LINEAR    3.61395E-01   127.44    0.00000E+00     0.00
   45.00   130.00      -1.88 -999.99   -1.88    0.00000     0.00  LINEAR    4.06776E-01   134.51    0.00000E+00     0.00
   50.00   130.00      -0.99 -999.99   -0.99    0.00000     0.00  LINEAR    4.50809E-01   140.99    0.00000E+00     0.00
   55.00   130.00      -0.22 -999.99   -0.22    0.00000     0.00  LINEAR    4.92702E-01   146.81    0.00000E+00     0.00
   60.00   130.00       0.44 -999.99    0.44    0.00000     0.00  LINEAR    5.31569E-01   151.95    0.00000E+00     0.00
   65.00   130.00       0.99 -999.99    0.99    0.00000     0.00  LINEAR    5.66479E-01   156.36    0.00000E+00     0.00
   70.00   130.00       1.44 -999.99    1.44    0.00000     0.00  LINEAR    5.96501E-01   160.00    0.00000E+00     0.00
   75.00   130.00       1.79 -999.99    1.79    0.00000     0.00  LINEAR    6.20773E-01   162.86    0.00000E+00     0.00
   80.00   130.00       2.03 -999.99    2.03    0.00000     0.00  LINEAR    6.38548E-01   164.91    0.00000E+00     0.00
   85.00   130.00       2.18 -999.99    2.18    0.00000     0.00  LINEAR    6.49257E-01   166.14    0.00000E+00     0.00
   90.00   130.00       2.22 -999.99    2.22    0.00000     0.00  LINEAR    6.52548E-01   166.53    0.00000E+00     0.00
   95.00   130.00       2.17 -999.99    2.17    0.00000     0.00  LINEAR    6.48310E-01   166.09    0.00000E+00     0.00
  100.00   130.00       2.01 -999.99    2.01    0.00000     0.00  LINEAR    6.36688E-01   164.81    0.00000E+00     0.00
  105.00   130.00       1.75 -999.99    1.75    0.00000     0.00  LINEAR    6.18066E-01   162.70    0.00000E+00     0.00
  110.00   130.00       1.39 -999.99    1.39    0.00000     0.00  LINEAR    5.93044E-01   159.79    0.00000E+00     0.00
  115.00   130.00       0.93 -999.99    0.93    0.00000     0.00  LINEAR    5.62391E-01   156.09    0.00000E+00     0.00
  120.00   130.00       0.37 -999.99    0.37    0.00000     0.00  LINEAR    5.26990E-01   151.63    0.00000E+00     0.00
  125.00   130.00      -0.30 -999.99   -0.30    0.00000     0.00  LINEAR    4.87783E-01   146.45    0.00000E+00     0.00
  130.00   130.00      -1.09 -999.99   -1.09    0.00000     0.00  LINEAR    4.45710E-01   140.57    0.00000E+00     0.00
  135.00   130.00      -1.99 -999.99   -1.99    0.00000     0.00  LINEAR    4.01655E-01   134.05    0.00000E+00     0.00
  140.00   130.00      -3.03 -999.99   -3.03    0.00000     0.00  LINEAR    3.56407E-01   126.94    0.00000E+00     0.00
  145.00   130.00      -4.22 -999.99   -4.22    0.00000     0.00  LINEAR    3.10626E-01   119.28    0.00000E+00     0.00
  150.00   130.00      -5.61 -999.99   -5.61    0.00000     0.00  LINEAR    2.64824E-01   111.14    0.00000E+00     0.00
  155.00   130.00      -7.25 -999.99   -7.25    0.00000     0.00  LINEAR    2.19358E-01   102.57    0.00000E+00     0.00
  160.00   130.00      -9.24 -999.99   -9.24    0.00000     0.00  LINEAR    1.74436E-01    93.64    0.00000E+00     0.00
  165.00   130.00     -11.78 -999.99  -11.78    0.00000     0.00  LINEAR    1.30127E-01    84.41    0.00000E+00     0.00
  170.00   130.00     -15.34 -999.99  -15.34    0.00000     0.00  LINEAR    8.63871E-02    74.95    0.00000E+00     0.00
  175.00   130.00     -21.38 -999.99  -21.38    0.00000     0.00  LINEAR    4.30779E-02    65.34    0.00000E+00     0.00
  180.00   130.00    -999.99 -999.99 -999.99    0.00000     0.00            5.03382E-12  -124.36    0.00000E+00     0.00
    0.00   140.00    -999.99 -999.99 -999.99    0.00000     0.00            0.00000E+00     0.00    0.00000E+00     0.00
    5.00   140.00     -21.22 -999.99  -21.22    0.00000     0.00  LINEAR    4.39131E-02    67.89    0.00000E+00     0.00
   10.00   140.00     -15.18 -999.99  -15.18    0.00000     0.00  LINEAR    8.80368E-02    79.34    0.00000E+00     0.00
   15.00   140.00     -11.62 -999.99  -11.62    0.00000     0.00  LINEAR    1.32550E-01    90.59    0.00000E+00     0.00
   20.00   140.00      -9.08 -999.99   -9.08    0.00000     0.00  LINEAR    1.77570E-01   101.58    0.00000E+00     0.00
   25.00   140.00      -7.10 -999.99   -7.10    0.00000     0.00  LINEAR    2.23123E-01   112.20    0.00000E+00     0.00
   30.00   140.00      -5.47 -999.99   -5.47    0.00000     0.00  LINEAR    2.69120E-01   122.39    0.00000E+00     0.00
   35.00   140.00      -4.09 -999.99   -4.09    0.00000     0.00  LINEAR    3.15335E-01   132.07    0.00000E+00     0.00
   40.00   140.00      -2.91 -999.99   -2.91    0.00000     0.00  LINEAR    3.61395E-01   141.16    0.00000E+00     0.00
   45.00   140.00      -1.88 -999.99   -1.88    0.00000     0.00  LINEAR    4.06776E-01   149.61    0.00000E+00     0.00
   50.00   140.00      -0.99 -999.99   -0.99    0.00000     0.00  LINEAR    4.50809E-01   157.34    0.00000E+00     0.00
   55.00   140.00      -0.22 -999.99   -0.22    0.00000     0.00  LINEAR    4.92702E-01   164.29    0.00000E+00     0.00
   60.00   140.00       0.44 -999.99    0.44    0.00000     0.00  LINEAR    5.31569E-01   170.43    0.00000E+00     0.00
   65.00   140.00       0.99 -999.99    0.99    0.00000     0.00  LINEAR    5.66479E-01   175.70    0.00000E+00     0.00
   70.00   140.00       1.44 -999.99    1.44    0.00000     0.00  LINEAR    5.96501E-01  -179.94    0.00000E+00     0.00
   75.00   140.00       1.79 -999.99    1.79    0.00000     0.00  LINEAR    6.20773E-01  -176.52    0.00000E+00     0.00
   80.00   140.00       2.03 -999.99    2.03    0.00000     0.00  LINEAR    6.38548E-01  -174.07    0.00000E+00     0.00
   85.00   140.00       2.18 -999.99    2.18    0.00000     0.00  LINEAR    6.49257E-01  -172.60    0.00000E+00     0.00
   90.00   140.00       2.22 -999.99    2.22    0.00000     0.00  LINEAR    6.52548E-01  -172.13    0.00000E+00     0.00
   95.00   140.00       2.17 -999.99    2.17    0.00000     0.00  LINEAR    6.48310E-01  -172.65    0.00000E+00     0.00
  100.00   140.00       2.01 -999.99    2.01    0.00000     0.00  LINEAR    6.36688E-01  -174.17    0.00000E+00     0.00
  105.00   140.00       1.75 -999.99    1.75    0.00000     0.00  LINEAR    6.18066E-01  -176.68    0.00000E+00     0.00
  110.00   140.00       1.39 -999.99    1.39    0.00000     0.00  LINEAR    5.93044E-01   179.85    0.00000E+00     0.00
  115.00   140.00       0.93 -999.99    0.93    0.00000     0.00  LINEAR    5.62391E-01   175.44    0.00000E+00     0.00
  120.00   140.00       0.37 -999.99    0.37    0.00000     0.00  LINEAR    5.26990E-01   170.12    0.00000E+00     0.00
  125.00   140.00      -0.30 -999.99   -0.30    0.00000     0.00  LINEAR    4.87783E-01   163.93    0.00000E+00     0.00
  130.00   140.00      -1.09 -999.99   -1.09    0.00000     0.00  LINEAR    4.45710E-01   156.92    0.00000E+00     0.00
  135.00   140.00      -1.99 -999.99   -1.99    0.00000     0.00  LINEAR    4.01655E-01   149.15    0.00000E+00     0.00
  140.00   140.00      -3.03 -999.99   -3.03    0.00000     0.00  LINEAR    3.56407E-01   140.66    0.00000E+00     0.00
  145.00   140.00      -4.22 -999.99   -4.22    0.00000     0.00  LINEAR    3.10626E-01   131.52    0.00000E+00     0.00
  150.00   140.00      -5.61 -999.99   -5.61    0.00000     0.00  LINEAR    2.64824E-01   121.81    0.00000E+00     0.00
  155.00   140.00      -7.25 -999.99   -7.25    0.00000     0.00  LINEAR    2.19358E-01   111.59    0.00000E+00     0.00
  160.00   140.00      -9.24 -999.99   -9.24    0.00000     0.00  LINEAR    1.74436E-01   100.94    0.00000E+00     0.00
  165.00   140.00     -11.78 -999.99  -11.78    0.00000     0.00  LINEAR    1.30127E-01    89.93    0.00000E+00     0.00
  170.00   140.00     -15.34 -999.99  -15.34    0.00000     0.00  LINEAR    8.63871E-02    78.66    0.00000E+00     0.00
  175.00   140.00     -21.38 -999.99  -21.38    0.00000     0.00  LINEAR    4.30779E-02    67.20    0.00000E+00     0.00
  180.00   140.00    -999.99 -999.99 -999.99    0.00000     0.00            5.03382E-12  -124.36    0.00000E+00     0.00
    0.00   150.00    -999.99 -999.99 -999.99    0.00000     0.00            0.00000E+00     0.00    0.00000E+00     0.00
    5.00   150.00     -21.22 -999.99  -21.22    0.00000     0.00  LINEAR    4.39131E-02    69.40    0.00000E+00     0.00
   10.00   150.00     -15.18 -999.99  -15.18    0.00000     0.00  LINEAR    8.80368E-02    82.34    0.00000E+00     0.00
   15.00   150.00     -11.62 -999.99  -11.62    0.00000     0.00  LINEAR    1.32550E-01    95.07    0.00000E+00     0.00
   20.00   150.00      -9.08 -999.99   -9.08    0.00000     0.00  LINEAR    1.77570E-01   107.50    0.00000E+00     0.00
   25.00   150.00      -7.10 -999.99   -7.10    0.00000     0.00  LINEAR    2.23123E-01   119.52    0.00000E+00     0.00
   30.00   150.00      -5.47 -999.99   -5.47    0.00000     0.00  LINEAR    2.69120E-01   131.05    0.00000E+00     0.00
   35.00   150.00      -4.09 -999.99   -4.09    0.00000     0.00  LINEAR    3.15335E-01   142.00    0.00000E+00     0.00
   40.00   150.00      -2.91 -999.99   -2.91    0.00000     0.00  LINEAR    3.61395E-01   152.29    0.00000E+00     0.00
   45.00   150.00      -1.88 -999.99   -1.88    0.00000     0.00  LINEAR    4.06776E-01   161.85    0.00000E+00     0.00
   50.00   150.00      -0.99 -999.99   -0.99    0.00000     0.00  LINEAR    4.50809E-01   170.60    0.00000E+00     0.00
   55.00   150.00      -0.22 -999.99   -0.22    0.00000     0.00  LINEAR    4.92702E-01   178.48    0.00000E+00     0.00
   60.00   150.00       0.44 -999.99    0.44    0.00000     0.00  LINEAR    5.31569E-01  -174.58    0.00000E+00     0.00
   65.00   150.00       0.99 -999.99    0.99    0.00000     0.00  LINEAR    5.66479E-01  -168.61    0.00000E+00     0.00
   70.00   150.00       1.44 -999.99    1.44    0.00000     0.00  LINEAR    5.96501E-01  -163.67    0.00000E+00     0.00
   75.00   150.00       1.79 -999.99    1.79    0.00000     0.00  LINEAR    6.20773E-01  -159.80    0.00000E+00     0.00
   80.00   150.00       2.03 -999.99    2.03    0.00000     0.00  LINEAR    6.38548E-01  -157.02    0.00000E+00     0.00
   85.00   150.00       2.18 -999.99    2.18    0.00000     0.00  LINEAR    6.49257E-01  -155.35    0.00000E+00     0.00
   90.00   150.00       2.22 -999.99    2.22    0.00000     0.00  LINEAR    6.52548E-01  -154.81    0.00000E+00     0.00
   95.00   150.00       2.17 -999.99    2.17    0.00000     0.00  LINEAR    6.48310E-01  -155.41    0.00000E+00     0.00
  100.00   150.00       2.01 -999.99    2.01    0.00000     0.00  LINEAR    6.36688E-01  -157.12    0.00000E+00     0.00
  105.00   150.00       1.75 -999.99    1.75    0.00000     0.00  LINEAR    6.18066E-01  -159.96    0.00000E+00     0.00
  110.00   150.00       1.39 -999.99    1.39    0.00000     0.00  LINEAR    5.93044E-01  -163.88    0.00000E+00     0.00
  115.00   150.00       0.93 -999.99    0.93    0.00000     0.00  LINEAR    5.62391E-01  -168.87    0.00000E+00     0.00
  120.00   150.00       0.37 -999.99    0.37    0.00000     0.00  LINEAR    5.26990E-01  -174.89    0.00000E+00     0.00
  125.00   150.00      -0.30 -999.99   -0.30    0.00000     0.00  LINEAR    4.87783E-01   178.11    0.00000E+00     0.00
  130.00   150.00      -1.09 -999.99   -1.09    0.00000     0.00  LINEAR    4.45710E-01   170.18    0.00000E+00     0.00
  135.00   150.00      -1.99 -999.99   -1.99    0.00000     0.00  LINEAR    4.01655E-01   161.39    0.00000E+00     0.00
  140.00   150.00      -3.03 -999.99   -3.03    0.00000     0.00  LINEAR    3.56407E-01   151.79    0.00000E+00     0.00
  145.00   150.00      -4.22 -999.99   -4.22    0.00000     0.00  LINEAR    3.10626E-01   141.45    0.00000E+00     0.00
[...]
  120.00   320.00       0.37 -999.99    0.37    0.00000     0.00  LINEAR    5.26990E-01   -59.63    0.00000E+00     0.00
  125.00   320.00      -0.30 -999.99   -0.30    0.00000     0.00  LINEAR    4.87783E-01   -53.38    0.00000E+00     0.00
  130.00   320.00      -1.09 -999.99   -1.09    0.00000     0.00  LINEAR    4.45710E-01   -46.30    0.00000E+00     0.00
  135.00   320.00      -1.99 -999.99   -1.99    0.00000     0.00  LINEAR    4.01655E-01   -38.44    0.00000E+00     0.00
  140.00   320.00      -3.03 -999.99   -3.03    0.00000     0.00  LINEAR    3.56407E-01   -29.87    0.00000E+00     0.00
  145.00   320.00      -4.22 -999.99   -4.22    0.00000     0.00  LINEAR    3.10626E-01   -20.64    0.00000E+00     0.00
  150.00   320.00      -5.61 -999.99   -5.61    0.00000     0.00  LINEAR    2.64824E-01   -10.83    0.00000E+00     0.00
  155.00   320.00      -7.25 -999.99   -7.25    0.00000     0.00  LINEAR    2.19358E-01    -0.53    0.00000E+00     0.00
  160.00   320.00      -9.24 -999.99   -9.24    0.00000     0.00  LINEAR    1.74436E-01    10.20    0.00000E+00     0.00
  165.00   320.00     -11.78 -999.99  -11.78    0.00000     0.00  LINEAR    1.30127E-01    21.27    0.00000E+00     0.00
  170.00   320.00     -15.34 -999.99  -15.34    0.00000     0.00  LINEAR    8.63871E-02    32.59    0.00000E+00     0.00
  175.00   320.00     -21.38 -999.99  -21.38    0.00000     0.00  LINEAR    4.30779E-02    44.08    0.00000E+00     0.00
  180.00   320.00    -999.99 -999.99 -999.99    0.00000     0.00            5.03382E-12  -124.36    0.00000E+00     0.00
    0.00   330.00    -999.99 -999.99 -999.99    0.00000     0.00            0.00000E+00     0.00    0.00000E+00     0.00
    5.00   330.00     -21.22 -999.99  -21.22    0.00000     0.00  LINEAR    4.39131E-02    43.26    0.00000E+00     0.00
   10.00   330.00     -15.18 -999.99  -15.18    0.00000     0.00  LINEAR    8.80368E-02    30.26    0.00000E+00     0.00
   15.00   330.00     -11.62 -999.99  -11.62    0.00000     0.00  LINEAR    1.32550E-01    17.45    0.00000E+00     0.00
   20.00   330.00      -9.08 -999.99   -9.08    0.00000     0.00  LINEAR    1.77570E-01     4.92    0.00000E+00     0.00
   25.00   330.00      -7.10 -999.99   -7.10    0.00000     0.00  LINEAR    2.23123E-01    -7.23    0.00000E+00     0.00
   30.00   330.00      -5.47 -999.99   -5.47    0.00000     0.00  LINEAR    2.69120E-01   -18.91    0.00000E+00     0.00
   35.00   330.00      -4.09 -999.99   -4.09    0.00000     0.00  LINEAR    3.15335E-01   -30.03    0.00000E+00     0.00
   40.00   330.00      -2.91 -999.99   -2.91    0.00000     0.00  LINEAR    3.61395E-01   -40.49    0.00000E+00     0.00
   45.00   330.00      -1.88 -999.99   -1.88    0.00000     0.00  LINEAR    4.06776E-01   -50.22    0.00000E+00     0.00
   50.00   330.00      -0.99 -999.99   -0.99    0.00000     0.00  LINEAR    4.50809E-01   -59.15    0.00000E+00     0.00
   55.00   330.00      -0.22 -999.99   -0.22    0.00000     0.00  LINEAR    4.92702E-01   -67.20    0.00000E+00     0.00
   60.00   330.00       0.44 -999.99    0.44    0.00000     0.00  LINEAR    5.31569E-01   -74.31    0.00000E+00     0.00
   65.00   330.00       0.99 -999.99    0.99    0.00000     0.00  LINEAR    5.66479E-01   -80.43    0.00000E+00     0.00
   70.00   330.00       1.44 -999.99    1.44    0.00000     0.00  LINEAR    5.96501E-01   -85.50    0.00000E+00     0.00
   75.00   330.00       1.79 -999.99    1.79    0.00000     0.00  LINEAR    6.20773E-01   -89.49    0.00000E+00     0.00
   80.00   330.00       2.03 -999.99    2.03    0.00000     0.00  LINEAR    6.38548E-01   -92.38    0.00000E+00     0.00
   85.00   330.00       2.18 -999.99    2.18    0.00000     0.00  LINEAR    6.49257E-01   -94.12    0.00000E+00     0.00
   90.00   330.00       2.22 -999.99    2.22    0.00000     0.00  LINEAR    6.52548E-01   -94.73    0.00000E+00     0.00
   95.00   330.00       2.17 -999.99    2.17    0.00000     0.00  LINEAR    6.48310E-01   -94.18    0.00000E+00     0.00
  100.00   330.00       2.01 -999.99    2.01    0.00000     0.00  LINEAR    6.36688E-01   -92.48    0.00000E+00     0.00
  105.00   330.00       1.75 -999.99    1.75    0.00000     0.00  LINEAR    6.18066E-01   -89.65    0.00000E+00     0.00
  110.00   330.00       1.39 -999.99    1.39    0.00000     0.00  LINEAR    5.93044E-01   -85.71    0.00000E+00     0.00
  115.00   330.00       0.93 -999.99    0.93    0.00000     0.00  LINEAR    5.62391E-01   -80.69    0.00000E+00     0.00
  120.00   330.00       0.37 -999.99    0.37    0.00000     0.00  LINEAR    5.26990E-01   -74.62    0.00000E+00     0.00
  125.00   330.00      -0.30 -999.99   -0.30    0.00000     0.00  LINEAR    4.87783E-01   -67.56    0.00000E+00     0.00
  130.00   330.00      -1.09 -999.99   -1.09    0.00000     0.00  LINEAR    4.45710E-01   -59.56    0.00000E+00     0.00
  135.00   330.00      -1.99 -999.99   -1.99    0.00000     0.00  LINEAR    4.01655E-01   -50.68    0.00000E+00     0.00
  140.00   330.00      -3.03 -999.99   -3.03    0.00000     0.00  LINEAR    3.56407E-01   -40.99    0.00000E+00     0.00
  145.00   330.00      -4.22 -999.99   -4.22    0.00000     0.00  LINEAR    3.10626E-01   -30.57    0.00000E+00     0.00
  150.00   330.00      -5.61 -999.99   -5.61    0.00000     0.00  LINEAR    2.64824E-01   -19.49    0.00000E+00     0.00
  155.00   330.00      -7.25 -999.99   -7.25    0.00000     0.00  LINEAR    2.19358E-01    -7.84    0.00000E+00     0.00
  160.00   330.00      -9.24 -999.99   -9.24    0.00000     0.00  LINEAR    1.74436E-01     4.28    0.00000E+00     0.00
  165.00   330.00     -11.78 -999.99  -11.78    0.00000     0.00  LINEAR    1.30127E-01    16.79    0.00000E+00     0.00
  170.00   330.00     -15.34 -999.99  -15.34    0.00000     0.00  LINEAR    8.63871E-02    29.58    0.00000E+00     0.00
  175.00   330.00     -21.38 -999.99  -21.38    0.00000     0.00  LINEAR    4.30779E-02    42.57    0.00000E+00     0.00
  180.00   330.00    -999.99 -999.99 -999.99    0.00000     0.00            5.03382E-12  -124.36    0.00000E+00     0.00
    0.00   340.00    -999.99 -999.99 -999.99    0.00000     0.00            0.00000E+00     0.00    0.00000E+00     0.00
    5.00   340.00     -21.22 -999.99  -21.22    0.00000     0.00  LINEAR    4.39131E-02    42.15    0.00000E+00     0.00
   10.00   340.00     -15.18 -999.99  -15.18    0.00000     0.00  LINEAR    8.80368E-02    28.05    0.00000E+00     0.00
   15.00   340.00     -11.62 -999.99  -11.62    0.00000     0.00  LINEAR    1.32550E-01    14.15    0.00000E+00     0.00
   20.00   340.00      -9.08 -999.99   -9.08    0.00000     0.00  LINEAR    1.77570E-01     0.56    0.00000E+00     0.00
   25.00   340.00      -7.10 -999.99   -7.10    0.00000     0.00  LINEAR    2.23123E-01   -12.62    0.00000E+00     0.00
   30.00   340.00      -5.47 -999.99   -5.47    0.00000     0.00  LINEAR    2.69120E-01   -25.29    0.00000E+00     0.00
   35.00   340.00      -4.09 -999.99   -4.09    0.00000     0.00  LINEAR    3.15335E-01   -37.34    0.00000E+00     0.00
   40.00   340.00      -2.91 -999.99   -2.91    0.00000     0.00  LINEAR    3.61395E-01   -48.69    0.00000E+00     0.00
   45.00   340.00      -1.88 -999.99   -1.88    0.00000     0.00  LINEAR    4.06776E-01   -59.24    0.00000E+00     0.00
   50.00   340.00      -0.99 -999.99   -0.99    0.00000     0.00  LINEAR    4.50809E-01   -68.92    0.00000E+00     0.00
   55.00   340.00      -0.22 -999.99   -0.22    0.00000     0.00  LINEAR    4.92702E-01   -77.65    0.00000E+00     0.00
   60.00   340.00       0.44 -999.99    0.44    0.00000     0.00  LINEAR    5.31569E-01   -85.36    0.00000E+00     0.00
   65.00   340.00       0.99 -999.99    0.99    0.00000     0.00  LINEAR    5.66479E-01   -91.99    0.00000E+00     0.00
   70.00   340.00       1.44 -999.99    1.44    0.00000     0.00  LINEAR    5.96501E-01   -97.49    0.00000E+00     0.00
   75.00   340.00       1.79 -999.99    1.79    0.00000     0.00  LINEAR    6.20773E-01  -101.81    0.00000E+00     0.00
   80.00   340.00       2.03 -999.99    2.03    0.00000     0.00  LINEAR    6.38548E-01  -104.94    0.00000E+00     0.00
   85.00   340.00       2.18 -999.99    2.18    0.00000     0.00  LINEAR    6.49257E-01  -106.83    0.00000E+00     0.00
   90.00   340.00       2.22 -999.99    2.22    0.00000     0.00  LINEAR    6.52548E-01  -107.48    0.00000E+00     0.00
   95.00   340.00       2.17 -999.99    2.17    0.00000     0.00  LINEAR    6.48310E-01  -106.89    0.00000E+00     0.00
  100.00   340.00       2.01 -999.99    2.01    0.00000     0.00  LINEAR    6.36688E-01  -105.04    0.00000E+00     0.00
  105.00   340.00       1.75 -999.99    1.75    0.00000     0.00  LINEAR    6.18066E-01  -101.97    0.00000E+00     0.00
  110.00   340.00       1.39 -999.99    1.39    0.00000     0.00  LINEAR    5.93044E-01   -97.70    0.00000E+00     0.00
  115.00   340.00       0.93 -999.99    0.93    0.00000     0.00  LINEAR    5.62391E-01   -92.25    0.00000E+00     0.00
  120.00   340.00       0.37 -999.99    0.37    0.00000     0.00  LINEAR    5.26990E-01   -85.67    0.00000E+00     0.00
  125.00   340.00      -0.30 -999.99   -0.30    0.00000     0.00  LINEAR    4.87783E-01   -78.01    0.00000E+00     0.00
  130.00   340.00      -1.09 -999.99   -1.09    0.00000     0.00  LINEAR    4.45710E-01   -69.33    0.00000E+00     0.00
  135.00   340.00      -1.99 -999.99   -1.99    0.00000     0.00  LINEAR    4.01655E-01   -59.70    0.00000E+00     0.00
  140.00   340.00      -3.03 -999.99   -3.03    0.00000     0.00  LINEAR    3.56407E-01   -49.19    0.00000E+00     0.00
  145.00   340.00      -4.22 -999.99   -4.22    0.00000     0.00  LINEAR    3.10626E-01   -37.89    0.00000E+00     0.00
  150.00   340.00      -5.61 -999.99   -5.61    0.00000     0.00  LINEAR    2.64824E-01   -25.87    0.00000E+00     0.00
  155.00   340.00      -7.25 -999.99   -7.25    0.00000     0.00  LINEAR    2.19358E-01   -13.24    0.00000E+00     0.00
  160.00   340.00      -9.24 -999.99   -9.24    0.00000     0.00  LINEAR    1.74436E-01    -0.08    0.00000E+00     0.00
  165.00   340.00     -11.78 -999.99  -11.78    0.00000     0.00  LINEAR    1.30127E-01    13.49    0.00000E+00     0.00
  170.00   340.00     -15.34 -999.99  -15.34    0.00000     0.00  LINEAR    8.63871E-02    27.37    0.00000E+00     0.00
  175.00   340.00     -21.38 -999.99  -21.38    0.00000     0.00  LINEAR    4.30779E-02    41.46    0.00000E+00     0.00
  180.00   340.00    -999.99 -999.99 -999.99    0.00000     0.00            5.03382E-12  -124.36    0.00000E+00     0.00
    0.00   350.00    -999.99 -999.99 -999.99    0.00000     0.00            0.00000E+00     0.00    0.00000E+00     0.00
    5.00   350.00     -21.22 -999.99  -21.22    0.00000     0.00  LINEAR    4.39131E-02    41.46    0.00000E+00     0.00
   10.00   350.00     -15.18 -999.99  -15.18    0.00000     0.00  LINEAR    8.80368E-02    26.69    0.00000E+00     0.00
   15.00   350.00     -11.62 -999.99  -11.62    0.00000     0.00  LINEAR    1.32550E-01    12.13    0.00000E+00     0.00
   20.00   350.00      -9.08 -999.99   -9.08    0.00000     0.00  LINEAR    1.77570E-01    -2.11    0.00000E+00     0.00
   25.00   350.00      -7.10 -999.99   -7.10    0.00000     0.00  LINEAR    2.23123E-01   -15.92    0.00000E+00     0.00
   30.00   350.00      -5.47 -999.99   -5.47    0.00000     0.00  LINEAR    2.69120E-01   -29.19    0.00000E+00     0.00
   35.00   350.00      -4.09 -999.99   -4.09    0.00000     0.00  LINEAR    3.15335E-01   -41.82    0.00000E+00     0.00
   40.00   350.00      -2.91 -999.99   -2.91    0.00000     0.00  LINEAR    3.61395E-01   -53.71    0.00000E+00     0.00
   45.00   350.00      -1.88 -999.99   -1.88    0.00000     0.00  LINEAR    4.06776E-01   -64.77    0.00000E+00     0.00
   50.00   350.00      -0.99 -999.99   -0.99    0.00000     0.00  LINEAR    4.50809E-01   -74.91    0.00000E+00     0.00
   55.00   350.00      -0.22 -999.99   -0.22    0.00000     0.00  LINEAR    4.92702E-01   -84.05    0.00000E+00     0.00
   60.00   350.00       0.44 -999.99    0.44    0.00000     0.00  LINEAR    5.31569E-01   -92.12    0.00000E+00     0.00
   65.00   350.00       0.99 -999.99    0.99    0.00000     0.00  LINEAR    5.66479E-01   -99.07    0.00000E+00     0.00
   70.00   350.00       1.44 -999.99    1.44    0.00000     0.00  LINEAR    5.96501E-01  -104.83    0.00000E+00     0.00
   75.00   350.00       1.79 -999.99    1.79    0.00000     0.00  LINEAR    6.20773E-01  -109.36    0.00000E+00     0.00
   80.00   350.00       2.03 -999.99    2.03    0.00000     0.00  LINEAR    6.38548E-01  -112.63    0.00000E+00     0.00
   85.00   350.00       2.18 -999.99    2.18    0.00000     0.00  LINEAR    6.49257E-01  -114.61    0.00000E+00     0.00
   90.00   350.00       2.22 -999.99    2.22    0.00000     0.00  LINEAR    6.52548E-01  -115.29    0.00000E+00     0.00
   95.00   350.00       2.17 -999.99    2.17    0.00000     0.00  LINEAR    6.48310E-01  -114.67    0.00000E+00     0.00
  100.00   350.00       2.01 -999.99    2.01    0.00000     0.00  LINEAR    6.36688E-01  -112.74    0.00000E+00     0.00
  105.00   350.00       1.75 -999.99    1.75    0.00000     0.00  LINEAR    6.18066E-01  -109.52    0.00000E+00     0.00
  110.00   350.00       1.39 -999.99    1.39    0.00000     0.00  LINEAR    5.93044E-01  -105.04    0.00000E+00     0.00
  115.00   350.00       0.93 -999.99    0.93    0.00000     0.00  LINEAR    5.62391E-01   -99.33    0.00000E+00     0.00
  120.00   350.00       0.37 -999.99    0.37    0.00000     0.00  LINEAR    5.26990E-01   -92.44    0.00000E+00     0.00
  125.00   350.00      -0.30 -999.99   -0.30    0.00000     0.00  LINEAR    4.87783E-01   -84.41    0.00000E+00     0.00
  130.00   350.00      -1.09 -999.99   -1.09    0.00000     0.00  LINEAR    4.45710E-01   -75.32    0.00000E+00     0.00
  135.00   350.00      -1.99 -999.99   -1.99    0.00000     0.00  LINEAR    4.01655E-01   -65.23    0.00000E+00     0.00
  140.00   350.00      -3.03 -999.99   -3.03    0.00000     0.00  LINEAR    3.56407E-01   -54.21    0.00000E+00     0.00
  145.00   350.00      -4.22 -999.99   -4.22    0.00000     0.00  LINEAR    3.10626E-01   -42.37    0.00000E+00     0.00
  150.00   350.00      -5.61 -999.99   -5.61    0.00000     0.00  LINEAR    2.64824E-01   -29.77    0.00000E+00     0.00
  155.00   350.00      -7.25 -999.99   -7.25    0.00000     0.00  LINEAR    2.19358E-01   -16.54    0.00000E+00     0.00
  160.00   350.00      -9.24 -999.99   -9.24    0.00000     0.00  LINEAR    1.74436E-01    -2.75    0.00000E+00     0.00
  165.00   350.00     -11.78 -999.99  -11.78    0.00000     0.00  LINEAR    1.30127E-01    11.46    0.00000E+00     0.00
  170.00   350.00     -15.34 -999.99  -15.34    0.00000     0.00  LINEAR    8.63871E-02    26.01    0.00000E+00     0.00
  175.00   350.00     -21.38 -999.99  -21.38    0.00000     0.00  LINEAR    4.30779E-02    40.78    0.00000E+00     0.00
  180.00   350.00    -999.99 -999.99 -999.99    0.00000     0.00            5.03382E-12  -124.36    0.00000E+00     0.00
    0.00   360.00    -999.99 -999.99 -999.99    0.00000     0.00            0.00000E+00     0.00    0.00000E+00     0.00
    5.00   360.00     -21.22 -999.99  -21.22    0.00000     0.00  LINEAR    4.39131E-02    41.24    0.00000E+00     0.00
   10.00   360.00     -15.18 -999.99  -15.18    0.00000     0.00  LINEAR    8.80368E-02    26.23    0.00000E+00     0.00
   15.00   360.00     -11.62 -999.99  -11.62    0.00000     0.00  LINEAR    1.32550E-01    11.45    0.00000E+00     0.00
   20.00   360.00      -9.08 -999.99   -9.08    0.00000     0.00  LINEAR    1.77570E-01    -3.01    0.00000E+00     0.00
   25.00   360.00      -7.10 -999.99   -7.10    0.00000     0.00  LINEAR    2.23123E-01   -17.04    0.00000E+00     0.00
   30.00   360.00      -5.47 -999.99   -5.47    0.00000     0.00  LINEAR    2.69120E-01   -30.51    0.00000E+00     0.00
   35.00   360.00      -4.09 -999.99   -4.09    0.00000     0.00  LINEAR    3.15335E-01   -43.33    0.00000E+00     0.00
   40.00   360.00      -2.91 -999.99   -2.91    0.00000     0.00  LINEAR    3.61395E-01   -55.40    0.00000E+00     0.00
   45.00   360.00      -1.88 -999.99   -1.88    0.00000     0.00  LINEAR    4.06776E-01   -66.63    0.00000E+00     0.00
   50.00   360.00      -0.99 -999.99   -0.99    0.00000     0.00  LINEAR    4.50809E-01   -76.92    0.00000E+00     0.00
   55.00   360.00      -0.22 -999.99   -0.22    0.00000     0.00  LINEAR    4.92702E-01   -86.20    0.00000E+00     0.00
   60.00   360.00       0.44 -999.99    0.44    0.00000     0.00  LINEAR    5.31569E-01   -94.40    0.00000E+00     0.00
   65.00   360.00       0.99 -999.99    0.99    0.00000     0.00  LINEAR    5.66479E-01  -101.45    0.00000E+00     0.00
   70.00   360.00       1.44 -999.99    1.44    0.00000     0.00  LINEAR    5.96501E-01  -107.30    0.00000E+00     0.00
   75.00   360.00       1.79 -999.99    1.79    0.00000     0.00  LINEAR    6.20773E-01  -111.90    0.00000E+00     0.00
   80.00   360.00       2.03 -999.99    2.03    0.00000     0.00  LINEAR    6.38548E-01  -115.22    0.00000E+00     0.00
   85.00   360.00       2.18 -999.99    2.18    0.00000     0.00  LINEAR    6.49257E-01  -117.23    0.00000E+00     0.00
   90.00   360.00       2.22 -999.99    2.22    0.00000     0.00  LINEAR    6.52548E-01  -117.93    0.00000E+00     0.00
   95.00   360.00       2.17 -999.99    2.17    0.00000     0.00  LINEAR    6.48310E-01  -117.29    0.00000E+00     0.00
  100.00   360.00       2.01 -999.99    2.01    0.00000     0.00  LINEAR    6.36688E-01  -115.33    0.00000E+00     0.00
  105.00   360.00       1.75 -999.99    1.75    0.00000     0.00  LINEAR    6.18066E-01  -112.06    0.00000E+00     0.00
  110.00   360.00       1.39 -999.99    1.39    0.00000     0.00  LINEAR    5.93044E-01  -107.51    0.00000E+00     0.00
  115.00   360.00       0.93 -999.99    0.93    0.00000     0.00  LINEAR    5.62391E-01  -101.71    0.00000E+00     0.00
  120.00   360.00       0.37 -999.99    0.37    0.00000     0.00  LINEAR    5.26990E-01   -94.71    0.00000E+00     0.00
  125.00   360.00      -0.30 -999.99   -0.30    0.00000     0.00  LINEAR    4.87783E-01   -86.57    0.00000E+00     0.00
  130.00   360.00      -1.09 -999.99   -1.09    0.00000     0.00  LINEAR    4.45710E-01   -77.33    0.00000E+00     0.00
  135.00   360.00      -1.99 -999.99   -1.99    0.00000     0.00  LINEAR    4.01655E-01   -67.09    0.00000E+00     0.00
  140.00   360.00      -3.03 -999.99   -3.03    0.00000     0.00  LINEAR    3.56407E-01   -55.91    0.00000E+00     0.00
  145.00   360.00      -4.22 -999.99   -4.22    0.00000     0.00  LINEAR    3.10626E-01   -43.88    0.00000E+00     0.00
  150.00   360.00      -5.61 -999.99   -5.61    0.00000     0.00  LINEAR    2.64824E-01   -31.09    0.00000E+00     0.00
  155.00   360.00      -7.25 -999.99   -7.25    0.00000     0.00  LINEAR    2.19358E-01   -17.65    0.00000E+00     0.00
  160.00   360.00      -9.24 -999.99   -9.24    0.00000     0.00  LINEAR    1.74436E-01    -3.65    0.00000E+00     0.00
  165.00   360.00     -11.78 -999.99  -11.78    0.00000     0.00  LINEAR    1.30127E-01    10.78    0.00000E+00     0.00
  170.00   360.00     -15.34 -999.99  -15.34    0.00000     0.00  LINEAR    8.63871E-02    25.56    0.00000E+00     0.00
  175.00   360.00     -21.38 -999.99  -21.38    0.00000     0.00  LINEAR    4.30779E-02    40.55    0.00000E+00     0.00
  180.00   360.00    -999.99 -999.99 -999.99    0.00000     0.00            5.03382E-12  -124.36    0.00000E+00     0.00


   AVERAGE POWER GAIN= 1.00673E+00       SOLID ANGLE USED IN AVERAGING=( 4.0000)*PI STERADIANS.








 ***** DATA CARD NO.  4   EN   0    37    37  1003  0.00000E+00  0.00000E+00  5.00000E+00  1.00000E+01  0.00000E+00  0.00000E+00

 RUN TIME =     0.016
