1



                                 *********************************************

                                    NUMERICAL ELECTROMAGNETICS CODE (NEC-2D)

                                 *********************************************




                                     - - - - COMMENTS - - - -


                                                                                                     
                                                                                                     




                                 - - - STRUCTURE SPECIFICATION - - -

                                     COORDINATES MUST BE INPUT IN
                                     METERS OR BE SCALED TO METERS
                                     BEFORE STRUCTURE INPUT IS ENDED


  WIRE                                                                               NO. OF    FIRST  LAST     TAG
  NO.        X1         Y1         Z1          X2         Y2         Z2      RADIUS   SEG.     SEG.   SEG.     NO.
     1   -0.13600    0.00000    0.12000    -0.03100    0.00000    0.12000    0.00250      2        1     2       1
     2   -0.03100    0.00000    0.12000     0.02100    0.00000    0.12000    0.00250      1        3     3     999
     3    0.02100    0.00000    0.12000     0.13600    0.00000    0.12000    0.00250      2        4     5       1
     4   -0.13300   -0.33000    0.12600    -0.13300   -0.33000    0.96400    0.00250     17        6    22       3
     5    0.13300   -0.33000    0.12600     0.13300   -0.33000    0.96400    0.00250     17       23    39       3
     6   -0.13300   -0.33000    0.12600     0.13300   -0.33000    0.12600    0.00250      6       40    45       3
     7   -0.13300   -0.33000    0.96400     0.00000   -0.33000    0.96400    0.00250      1       46    46       3
     8    0.00000   -0.33000    0.96400     0.13300   -0.33000    0.96400    0.00250      1       47    47       3
     9   -0.13600    0.00000    0.00000    -0.13600    0.00000    0.12000    0.00250      1       48    48       2
    10    0.13600    0.00000    0.00000     0.13600    0.00000    0.12000    0.00250      1       49    49       2
    11   -0.13600    0.00000    0.00000     0.13600    0.00000    0.00000    0.00250      6       50    55       2
    12   -0.13600    0.00000    0.97000     0.00000    0.00000    0.97000    0.00250      1       56    56       2
    13   -0.13600    0.00000    0.12000    -0.13600    0.00000    0.97000    0.00250      1       57    57       2
    14    0.13600    0.00000    0.12000     0.13600    0.00000    0.97000    0.00250      1       58    58       2
    15    0.00000    0.00000    0.97000     0.13600    0.00000    0.97000    0.00250      1       59    59       2
    16    0.00000    0.00000    0.97000     0.00000   -0.33000    0.96400    0.00050      7       60    66       4
      THE STRUCTURE HAS BEEN MOVED, MOVE DATA CARD IS -
        0    0   0.00000   0.00000   0.00000   0.00000   0.00000   8.00000   0.00000

   GROUND PLANE SPECIFIED.

   TOTAL SEGMENTS USED=   66     NO. SEG. IN A SYMMETRIC CELL=   66     SYMMETRY FLAG=  0


         - MULTIPLE WIRE JUNCTIONS -
 JUNCTION    SEGMENTS  (- FOR END 1, + FOR END 2)
     1        -1   48  -57
     2         5   49  -58
     3        46  -47   66
     4        56  -59  -60




                                 - - - - SEGMENTATION DATA - - - -

                                        COORDINATES IN METERS

                         I+ AND I- INDICATE THE SEGMENTS BEFORE AND AFTER I


  SEG.   COORDINATES OF SEG. CENTER     SEG.     ORIENTATION ANGLES    WIRE    CONNECTION DATA   TAG
  NO.       X         Y         Z       LENGTH     ALPHA     BETA      RADIUS    I-   I    I+    NO.
     1  -0.10975   0.00000   8.12000   0.05250    0.00000   0.00000   0.00250    48    1    2      1
     2  -0.05725   0.00000   8.12000   0.05250    0.00000   0.00000   0.00250     1    2    3      1
     3  -0.00500   0.00000   8.12000   0.05200    0.00000   0.00000   0.00250     2    3    4    999
     4   0.04975   0.00000   8.12000   0.05750    0.00000   0.00000   0.00250     3    4    5      1
     5   0.10725   0.00000   8.12000   0.05750    0.00000   0.00000   0.00250     4    5  -49      1
     6  -0.13300  -0.33000   8.15065   0.04929   90.00000   0.00000   0.00250   -40    6    7      3
     7  -0.13300  -0.33000   8.19994   0.04929   90.00000   0.00000   0.00250     6    7    8      3
     8  -0.13300  -0.33000   8.24924   0.04929   90.00000   0.00000   0.00250     7    8    9      3
     9  -0.13300  -0.33000   8.29853   0.04929   90.00000   0.00000   0.00250     8    9   10      3
    10  -0.13300  -0.33000   8.34782   0.04929   90.00000   0.00000   0.00250     9   10   11      3
    11  -0.13300  -0.33000   8.39712   0.04929   90.00000   0.00000   0.00250    10   11   12      3
    12  -0.13300  -0.33000   8.44641   0.04929   90.00000   0.00000   0.00250    11   12   13      3
    13  -0.13300  -0.33000   8.49571   0.04929   90.00000   0.00000   0.00250    12   13   14      3
    14  -0.13300  -0.33000   8.54500   0.04929   90.00000   0.00000   0.00250    13   14   15      3
    15  -0.13300  -0.33000   8.59429   0.04929   90.00000   0.00000   0.00250    14   15   16      3
    16  -0.13300  -0.33000   8.64359   0.04929   90.00000   0.00000   0.00250    15   16   17      3
    17  -0.13300  -0.33000   8.69288   0.04929   90.00000   0.00000   0.00250    16   17   18      3
    18  -0.13300  -0.33000   8.74218   0.04929   90.00000   0.00000   0.00250    17   18   19      3
    19  -0.13300  -0.33000   8.79147   0.04929   90.00000   0.00000   0.00250    18   19   20      3
    20  -0.13300  -0.33000   8.84076   0.04929   90.00000   0.00000   0.00250    19   20   21      3
    21  -0.13300  -0.33000   8.89006   0.04929   90.00000   0.00000   0.00250    20   21   22      3
    22  -0.13300  -0.33000   8.93935   0.04929   90.00000   0.00000   0.00250    21   22   46      3
    23   0.13300  -0.33000   8.15065   0.04929   90.00000   0.00000   0.00250    45   23   24      3
    24   0.13300  -0.33000   8.19994   0.04929   90.00000   0.00000   0.00250    23   24   25      3
    25   0.13300  -0.33000   8.24924   0.04929   90.00000   0.00000   0.00250    24   25   26      3
    26   0.13300  -0.33000   8.29853   0.04929   90.00000   0.00000   0.00250    25   26   27      3
    27   0.13300  -0.33000   8.34782   0.04929   90.00000   0.00000   0.00250    26   27   28      3
    28   0.13300  -0.33000   8.39712   0.04929   90.00000   0.00000   0.00250    27   28   29      3
    29   0.13300  -0.33000   8.44641   0.04929   90.00000   0.00000   0.00250    28   29   30      3
    30   0.13300  -0.33000   8.49571   0.04929   90.00000   0.00000   0.00250    29   30   31      3
    31   0.13300  -0.33000   8.54500   0.04929   90.00000   0.00000   0.00250    30   31   32      3
    32   0.13300  -0.33000   8.59429   0.04929   90.00000   0.00000   0.00250    31   32   33      3
    33   0.13300  -0.33000   8.64359   0.04929   90.00000   0.00000   0.00250    32   33   34      3
    34   0.13300  -0.33000   8.69288   0.04929   90.00000   0.00000   0.00250    33   34   35      3
    35   0.13300  -0.33000   8.74218   0.04929   90.00000   0.00000   0.00250    34   35   36      3
    36   0.13300  -0.33000   8.79147   0.04929   90.00000   0.00000   0.00250    35   36   37      3
    37   0.13300  -0.33000   8.84076   0.04929   90.00000   0.00000   0.00250    36   37   38      3
    38   0.13300  -0.33000   8.89006   0.04929   90.00000   0.00000   0.00250    37   38   39      3
    39   0.13300  -0.33000   8.93935   0.04929   90.00000   0.00000   0.00250    38   39  -47      3
    40  -0.11083  -0.33000   8.12600   0.04433    0.00000   0.00000   0.00250    -6   40   41      3
    41  -0.06650  -0.33000   8.12600   0.04433    0.00000   0.00000   0.00250    40   41   42      3
    42  -0.02217  -0.33000   8.12600   0.04433    0.00000   0.00000   0.00250    41   42   43      3
    43   0.02217  -0.33000   8.12600   0.04433    0.00000   0.00000   0.00250    42   43   44      3
    44   0.06650  -0.33000   8.12600   0.04433    0.00000   0.00000   0.00250    43   44   45      3
    45   0.11083  -0.33000   8.12600   0.04433    0.00000   0.00000   0.00250    44   45   23      3
    46  -0.06650  -0.33000   8.96400   0.13300    0.00000   0.00000   0.00250    22   46   47      3
    47   0.06650  -0.33000   8.96400   0.13300    0.00000   0.00000   0.00250    66   47  -39      3
    48  -0.13600   0.00000   8.06000   0.12000   90.00000   0.00000   0.00250   -50   48   57      2
    49   0.13600   0.00000   8.06000   0.12000   90.00000   0.00000   0.00250    55   49   58      2
    50  -0.11333   0.00000   8.00000   0.04533    0.00000   0.00000   0.00250   -48   50   51      2
    51  -0.06800   0.00000   8.00000   0.04533    0.00000   0.00000   0.00250    50   51   52      2
    52  -0.02267   0.00000   8.00000   0.04533    0.00000   0.00000   0.00250    51   52   53      2
    53   0.02267   0.00000   8.00000   0.04533    0.00000   0.00000   0.00250    52   53   54      2
    54   0.06800   0.00000   8.00000   0.04533    0.00000   0.00000   0.00250    53   54   55      2
    55   0.11333   0.00000   8.00000   0.04533    0.00000   0.00000   0.00250    54   55   49      2
    56  -0.06800   0.00000   8.97000   0.13600    0.00000   0.00000   0.00250    57   56   59      2
    57  -0.13600   0.00000   8.54500   0.85000   90.00000   0.00000   0.00250    -1   57   56      2
    58   0.13600   0.00000   8.54500   0.85000   90.00000   0.00000   0.00250     5   58  -59      2
    59   0.06800   0.00000   8.97000   0.13600    0.00000   0.00000   0.00250   -60   59  -58      2
    60   0.00000  -0.02357   8.96957   0.04715   -1.04163 -90.00000   0.00050    56   60   61      4
    61   0.00000  -0.07071   8.96871   0.04715   -1.04163 -90.00000   0.00050    60   61   62      4
    62   0.00000  -0.11786   8.96786   0.04715   -1.04163 -90.00000   0.00050    61   62   63      4
    63   0.00000  -0.16500   8.96700   0.04715   -1.04163 -90.00000   0.00050    62   63   64      4
    64   0.00000  -0.21214   8.96614   0.04715   -1.04163 -90.00000   0.00050    63   64   65      4
    65   0.00000  -0.25929   8.96529   0.04715   -1.04163 -90.00000   0.00050    64   65   66      4
    66   0.00000  -0.30643   8.96443   0.04715   -1.04163 -90.00000   0.00050    65   66  -46      4






 ***** DATA CARD NO.  1   GN   2     0     0     0  1.10000E+01  1.00000E-02  0.00000E+00  0.00000E+00  0.00000E+00  0.00000E+00
 ***** DATA CARD NO.  2   EK   0     0     0     0  0.00000E+00  0.00000E+00  0.00000E+00  0.00000E+00  0.00000E+00  0.00000E+00
 ***** DATA CARD NO.  3   EX   0   999     1     0  1.00000E+00  0.00000E+00  0.00000E+00  0.00000E+00  0.00000E+00  0.00000E+00
 ***** DATA CARD NO.  4   FR   0     1     0     0  1.44200E+02  0.00000E+00  0.00000E+00  0.00000E+00  0.00000E+00  0.00000E+00
 ***** DATA CARD NO.  5   RP   0    19    37  1003  0.00000E+00  9.00000E+01  5.00000E+00  1.00000E+01  0.00000E+00  0.00000E+00




                                 - - - - - - FREQUENCY - - - - - -

                                    FREQUENCY= 1.4420E+02 MHZ
                                    WAVELENGTH= 2.0791E+00 METERS




                    APPROXIMATE INTEGRATION EMPLOYED FOR SEGMENTS MORE THAN   1.000 WAVELENGTHS APART

                    THE EXTENDED THIN WIRE KERNEL WILL BE USED



                               - - - STRUCTURE IMPEDANCE LOADING - - -

                                   THIS STRUCTURE IS NOT LOADED



                                  - - - ANTENNA ENVIRONMENT - - -

                                        FINITE GROUND.  SOMMERFELD SOLUTION
                                        RELATIVE DIELECTRIC CONST.= 11.000
                                        CONDUCTIVITY= 1.000E-02 MHOS/METER
                                        COMPLEX DIELECTRIC CONSTANT= 1.10000E+01-1.24660E+00



                                - - - MATRIX TIMING - - -

                        FILL=    0.016 SEC.,  FACTOR=    0.000 SEC.



                                          - - - ANTENNA INPUT PARAMETERS - - -

   TAG   SEG.    VOLTAGE (VOLTS)         CURRENT (AMPS)         IMPEDANCE (OHMS)        ADMITTANCE (MHOS)      POWER
   NO.   NO.    REAL        IMAG.       REAL        IMAG.       REAL        IMAG.       REAL        IMAG.     (WATTS)
   999     3 1.00000E+00 0.00000E+00 1.85221E-02 2.64198E-03 5.29131E+01-7.54751E+00 1.85221E-02 2.64198E-03 9.26103E-03



                             - - - CURRENTS AND LOCATION - - -

                                 DISTANCES IN WAVELENGTHS


  SEG.  TAG    COORD. OF SEG. CENTER     SEG.            - - - CURRENT (AMPS) - - -
  NO.   NO.     X        Y        Z      LENGTH     REAL        IMAG.       MAG.        PHASE
     1    1  -0.0528   0.0000   3.9056  0.02525   1.7686E-02  1.9495E-03  1.7793E-02    6.290
     2    1  -0.0275   0.0000   3.9056  0.02525   1.8283E-02  2.3002E-03  1.8427E-02    7.171
     3  999  -0.0024   0.0000   3.9056  0.02501   1.8522E-02  2.6420E-03  1.8710E-02    8.118
     4    1   0.0239   0.0000   3.9056  0.02766   1.8349E-02  2.2831E-03  1.8490E-02    7.093
     5    1   0.0516   0.0000   3.9056  0.02766   1.7740E-02  1.9017E-03  1.7841E-02    6.119
     6    3  -0.0640  -0.1587   3.9204  0.02371   2.7079E-02 -9.9441E-03  2.8847E-02  -20.164
     7    3  -0.0640  -0.1587   3.9441  0.02371   2.5147E-02 -9.2311E-03  2.6787E-02  -20.158
     8    3  -0.0640  -0.1587   3.9678  0.02371   2.2680E-02 -8.3242E-03  2.4159E-02  -20.155
     9    3  -0.0640  -0.1587   3.9915  0.02371   1.9726E-02 -7.2400E-03  2.1013E-02  -20.155
    10    3  -0.0640  -0.1587   4.0152  0.02371   1.6346E-02 -6.0006E-03  1.7412E-02  -20.159
    11    3  -0.0640  -0.1587   4.0389  0.02371   1.2611E-02 -4.6320E-03  1.3435E-02  -20.169
    12    3  -0.0640  -0.1587   4.0626  0.02371   8.6020E-03 -3.1636E-03  9.1653E-03  -20.192
    13    3  -0.0640  -0.1587   4.0863  0.02371   4.4063E-03 -1.6269E-03  4.6971E-03  -20.266
    14    3  -0.0640  -0.1587   4.1100  0.02371   1.1552E-04 -5.5539E-05  1.2818E-04  -25.677
    15    3  -0.0640  -0.1587   4.1337  0.02371  -4.1763E-03  1.5164E-03  4.4431E-03  160.044
    16    3  -0.0640  -0.1587   4.1575  0.02371  -8.3750E-03  3.0548E-03  8.9147E-03  159.960
    17    3  -0.0640  -0.1587   4.1812  0.02371  -1.2389E-02  4.5262E-03  1.3190E-02  159.930
    18    3  -0.0640  -0.1587   4.2049  0.02371  -1.6130E-02  5.8989E-03  1.7174E-02  159.912
    19    3  -0.0640  -0.1587   4.2286  0.02371  -1.9517E-02  7.1436E-03  2.0783E-02  159.896
    20    3  -0.0640  -0.1587   4.2523  0.02371  -2.2478E-02  8.2343E-03  2.3939E-02  159.881
    21    3  -0.0640  -0.1587   4.2760  0.02371  -2.4952E-02  9.1491E-03  2.6576E-02  159.863
    22    3  -0.0640  -0.1587   4.2997  0.02371  -2.6890E-02  9.8711E-03  2.8645E-02  159.843
    23    3   0.0640  -0.1587   3.9204  0.02371  -2.7093E-02  9.9607E-03  2.8866E-02  159.814
    24    3   0.0640  -0.1587   3.9441  0.02371  -2.5165E-02  9.2520E-03  2.6812E-02  159.814
    25    3   0.0640  -0.1587   3.9678  0.02371  -2.2702E-02  8.3486E-03  2.4188E-02  159.809
    26    3   0.0640  -0.1587   3.9915  0.02371  -1.9751E-02  7.2672E-03  2.1045E-02  159.799
    27    3   0.0640  -0.1587   4.0152  0.02371  -1.6373E-02  6.0296E-03  1.7448E-02  159.783
    28    3   0.0640  -0.1587   4.0389  0.02371  -1.2640E-02  4.6619E-03  1.3472E-02  159.755
    29    3   0.0640  -0.1587   4.0626  0.02371  -8.6326E-03  3.1933E-03  9.2043E-03  159.700
    30    3   0.0640  -0.1587   4.0863  0.02371  -4.4375E-03  1.6556E-03  4.7363E-03  159.539
    31    3   0.0640  -0.1587   4.1100  0.02371  -1.4671E-04  8.2330E-05  1.6823E-04  150.699
    32    3   0.0640  -0.1587   4.1337  0.02371   4.1457E-03 -1.4924E-03  4.4062E-03  -19.798
    33    3   0.0640  -0.1587   4.1575  0.02371   8.3457E-03 -3.0343E-03  8.8802E-03  -19.980
    34    3   0.0640  -0.1587   4.1812  0.02371   1.2361E-02 -4.5098E-03  1.3158E-02  -20.044
    35    3   0.0640  -0.1587   4.2049  0.02371   1.6104E-02 -5.8873E-03  1.7147E-02  -20.081
    36    3   0.0640  -0.1587   4.2286  0.02371   1.9494E-02 -7.1372E-03  2.0760E-02  -20.109
    37    3   0.0640  -0.1587   4.2523  0.02371   2.2459E-02 -8.2335E-03  2.3920E-02  -20.133
    38    3   0.0640  -0.1587   4.2760  0.02371   2.4936E-02 -9.1540E-03  2.6563E-02  -20.158
    39    3   0.0640  -0.1587   4.2997  0.02371   2.6879E-02 -9.8819E-03  2.8638E-02  -20.186
    40    3  -0.0533  -0.1587   3.9085  0.02132  -2.8404E-02  1.0436E-02  3.0261E-02  159.826
    41    3  -0.0320  -0.1587   3.9085  0.02132  -2.9250E-02  1.0749E-02  3.1163E-02  159.823
    42    3  -0.0107  -0.1587   3.9085  0.02132  -2.9681E-02  1.0908E-02  3.1622E-02  159.822
    43    3   0.0107  -0.1587   3.9085  0.02132  -2.9684E-02  1.0910E-02  3.1625E-02  159.819
    44    3   0.0320  -0.1587   3.9085  0.02132  -2.9257E-02  1.0756E-02  3.1171E-02  159.815
    45    3   0.0533  -0.1587   3.9085  0.02132  -2.8415E-02  1.0448E-02  3.0275E-02  159.812
    46    3  -0.0320  -0.1587   4.3116  0.06397  -2.9056E-02  1.0687E-02  3.0959E-02  159.805
    47    3   0.0320  -0.1587   4.3116  0.06397  -2.9051E-02  1.0709E-02  3.0962E-02  159.766
    48    2  -0.0654   0.0000   3.8768  0.05772  -6.1379E-03 -3.3106E-03  6.9738E-03 -151.659
    49    2   0.0654   0.0000   3.8768  0.05772   6.1261E-03  3.3134E-03  6.9647E-03   28.407
    50    2  -0.0545   0.0000   3.8479  0.02180   7.1031E-03  3.5668E-03  7.9483E-03   26.663
    51    2  -0.0327   0.0000   3.8479  0.02180   7.4373E-03  3.6491E-03  8.2843E-03   26.135
    52    2  -0.0109   0.0000   3.8479  0.02180   7.6026E-03  3.6890E-03  8.4504E-03   25.884
    53    2   0.0109   0.0000   3.8479  0.02180   7.6011E-03  3.6901E-03  8.4495E-03   25.895
    54    2   0.0327   0.0000   3.8479  0.02180   7.4329E-03  3.6519E-03  8.2815E-03   26.165
    55    2   0.0545   0.0000   3.8479  0.02180   7.0960E-03  3.5701E-03  7.9435E-03   26.708
    56    2  -0.0327   0.0000   4.3145  0.06541   2.3193E-02  5.1038E-03  2.3748E-02   12.410
    57    2  -0.0654   0.0000   4.1100  0.40884  -1.5979E-03  8.6748E-05  1.6002E-03  176.893
    58    2   0.0654   0.0000   4.1100  0.40884   1.5764E-03 -1.1414E-04  1.5805E-03   -4.141
    59    2   0.0327   0.0000   4.3145  0.06541   2.3208E-02  5.0762E-03  2.3757E-02   12.338
    60    4   0.0000  -0.0113   4.3143  0.02268  -1.0593E-05  3.1425E-05  3.3162E-05  108.628
    61    4   0.0000  -0.0340   4.3138  0.02268  -9.2393E-06  3.1897E-05  3.3208E-05  106.154
    62    4   0.0000  -0.0567   4.3134  0.02268  -7.6685E-06  3.1960E-05  3.2867E-05  103.492
    63    4   0.0000  -0.0794   4.3130  0.02268  -5.9765E-06  3.1585E-05  3.2145E-05  100.715
    64    4   0.0000  -0.1020   4.3126  0.02268  -4.2271E-06  3.0783E-05  3.1072E-05   97.819
    65    4   0.0000  -0.1247   4.3122  0.02268  -2.4878E-06  2.9591E-05  2.9696E-05   94.806
    66    4   0.0000  -0.1474   4.3118  0.02268  -8.7436E-07  2.8116E-05  2.8129E-05   91.781



                                        - - - POWER BUDGET - - -

                                           INPUT POWER   = 9.2610E-03 WATTS
                                           RADIATED POWER= 9.2610E-03 WATTS
                                           STRUCTURE LOSS= 0.0000E+00 WATTS
                                           NETWORK LOSS  = 0.0000E+00 WATTS
                                           EFFICIENCY    = 100.00 PERCENT



                                                - - - RADIATION PATTERNS - - -

  - - ANGLES - -           - POWER GAINS -       - - - POLARIZATION - - -    - - - E(THETA) - - -    - - - E(PHI) - - -
  THETA     PHI        VERT.   HOR.    TOTAL      AXIAL     TILT   SENSE     MAGNITUDE    PHASE      MAGNITUDE    PHASE 
 DEGREES  DEGREES       DB      DB      DB        RATIO     DEG.              VOLTS/M    DEGREES      VOLTS/M    DEGREES
    0.00    90.00     -54.97   -9.55   -9.55    0.00147    89.71  LEFT      1.32910E-03   -72.76    2.48231E-01   -56.80
    5.00    90.00     -53.04  -10.02  -10.02    0.00092    89.60  LEFT      1.66018E-03   -74.54    2.35132E-01   -67.03
   10.00    90.00     -51.27  -14.26  -14.26    0.00062    89.19  RIGHT     2.03543E-03   -82.32    1.44244E-01   -84.86
   15.00    90.00     -50.66  -16.03  -16.03    0.01403   -89.30  RIGHT     2.18355E-03   -96.38    1.17665E-01   132.76
   20.00    90.00     -52.95   -3.57   -3.57    0.00253   -89.87  RIGHT     1.67833E-03  -125.24    4.93779E-01   102.96
   25.00    90.00     -54.58    0.09    0.09    0.00161    89.95  RIGHT     1.39141E-03   150.38    7.52983E-01    89.51
   30.00    90.00     -49.21   -6.87   -6.87    0.00404    89.63  RIGHT     2.57995E-03    93.70    3.37924E-01    61.78
   35.00    90.00     -51.08    1.36    1.36    0.00158   -89.90  RIGHT     2.08059E-03    48.44    8.71763E-01   -90.27
   40.00    90.00     -51.24    3.10    3.10    0.00137    89.92  RIGHT     2.04399E-03   -63.80    1.06456E+00  -109.22
   45.00    90.00     -49.95    2.16    2.16    0.00132   -89.88  RIGHT     2.37061E-03  -124.69    9.55817E-01    87.60
   50.00    90.00     -51.41    5.69    5.69    0.00106    89.95  RIGHT     2.00316E-03   114.53    1.43457E+00    64.97
   55.00    90.00     -51.43    7.33    7.33    0.00075   -89.95  RIGHT     1.99872E-03    35.51    1.73346E+00  -103.95
   60.00    90.00     -50.78    0.98    0.98    0.00168    89.89  RIGHT     2.15417E-03   -91.67    8.33829E-01  -132.26
   65.00    90.00     -53.34   11.32   11.32    0.00058   -90.00  RIGHT     1.60472E-03   159.41    2.74375E+00    65.87
   70.00    90.00     -52.40    7.42    7.42    0.00052   -89.95  RIGHT     1.78783E-03    41.80    1.75029E+00  -107.57
   75.00    90.00     -53.68    4.64    4.64    0.00081    89.95  RIGHT     1.54258E-03   -83.45    1.27204E+00  -125.07
   80.00    90.00     -52.51   13.28   13.28    0.00051   -90.00  RIGHT     1.76403E-03   153.70    3.43893E+00    62.98
   85.00    90.00     -52.93   11.82   11.82    0.00053   -89.99  RIGHT     1.68228E-03    -2.49    2.90444E+00  -115.69
   90.00    90.00    -999.99 -183.33 -183.33    0.00069    90.00  RIGHT     3.50920E-13   151.65    5.07623E-10    62.62
    0.00   100.00     -24.50   -9.69   -9.55    0.00147    79.71  LEFT      4.43648E-02   -57.27    2.44238E-01   -56.79
    5.00   100.00     -25.02  -10.17  -10.03    0.00067    79.75  RIGHT     4.17977E-02   -66.67    2.31157E-01   -66.89
   10.00   100.00     -29.31  -14.42  -14.28    0.00859    79.80  RIGHT     2.55273E-02   -81.73    1.41654E-01   -84.55
   15.00   100.00     -34.20  -16.23  -16.16    0.01351    82.85  RIGHT     1.45266E-02   139.10    1.15061E-01   132.86
   20.00   100.00     -21.63   -3.75   -3.68    0.00706    82.74  RIGHT     6.17481E-02   106.43    4.83674E-01   103.21
   25.00   100.00     -18.98   -0.09   -0.04    0.00888    83.53  RIGHT     8.38145E-02    94.38    7.37227E-01    89.84
   30.00   100.00     -27.25   -7.06   -7.02    0.01274    84.46  RIGHT     3.23418E-02    69.82    3.30417E-01    62.27
   35.00   100.00     -20.82    1.17    1.20    0.00566    85.46  RIGHT     6.78307E-02   -85.83    8.52389E-01   -89.93
   40.00   100.00     -20.84    2.90    2.92    0.00349    86.28  RIGHT     6.76781E-02  -105.70    1.04064E+00  -108.78
   45.00   100.00     -23.03    1.96    1.97    0.00551    86.79  RIGHT     5.25762E-02    93.60    9.33904E-01    87.96
   50.00   100.00     -22.25    5.49    5.49    0.00188    87.65  LEFT      5.75153E-02    62.81    1.40159E+00    65.44
   55.00   100.00     -21.95    7.13    7.14    0.00340    88.00  RIGHT     5.95229E-02   -97.97    1.69340E+00  -103.52
   60.00   100.00     -30.09    0.77    0.77    0.01731    88.69  LEFT      2.33142E-02  -168.92    8.14076E-01  -131.72
   65.00   100.00     -24.40   11.12   11.12    0.00251    89.05  LEFT      4.49139E-02    57.75    2.67988E+00    66.35
   70.00   100.00     -29.11    7.21    7.21    0.00469    89.17  RIGHT     2.61078E-02   -89.22    1.70941E+00  -107.09
   75.00   100.00     -31.03    4.44    4.44    0.01682    89.95  LEFT      2.09179E-02   148.51    1.24213E+00  -124.53
   80.00   100.00     -31.56   13.08   13.08    0.00563   -89.91  LEFT      1.96982E-02   -42.89    3.35843E+00    63.50
   85.00   100.00     -32.78   11.61   11.61    0.00360   -89.72  LEFT      1.71110E-02   101.51    2.83643E+00  -115.17
   90.00   100.00    -999.99 -183.54 -183.54    0.00864   -89.44  LEFT      6.48386E-12   -75.48    4.95729E-10    63.14
    0.00   110.00     -18.74  -10.10   -9.55    0.00147    69.71  LEFT      8.61016E-02   -57.03    2.32824E-01   -56.77
    5.00   110.00     -19.33  -10.60  -10.06    0.00205    69.88  RIGHT     8.05281E-02   -66.12    2.19859E-01   -66.48
   10.00   110.00     -23.79  -14.87  -14.35    0.01566    70.31  RIGHT     4.81744E-02   -80.79    1.34505E-01   -83.62
   15.00   110.00     -28.20  -16.84  -16.53    0.01354    74.89  RIGHT     2.89906E-02   136.39    1.07204E-01   133.31
   20.00   110.00     -15.82   -4.30   -4.01    0.01169    75.15  RIGHT     1.20533E-01   106.68    4.54005E-01   103.98
   25.00   110.00     -13.27   -0.65   -0.42    0.01660    76.87  RIGHT     1.61664E-01    95.15    6.91472E-01    90.86
   30.00   110.00     -21.81   -7.65   -7.48    0.02367    79.00  RIGHT     6.05252E-02    70.98    3.09007E-01    63.77
   35.00   110.00     -15.06    0.57    0.69    0.01008    80.62  RIGHT     1.31665E-01   -85.32    7.95842E-01   -88.91
   40.00   110.00     -15.23    2.30    2.38    0.00676    82.44  RIGHT     1.29108E-01  -104.50    9.71402E-01  -107.47
   45.00   110.00     -17.27    1.34    1.40    0.00977    83.34  RIGHT     1.02010E-01    93.91    8.69966E-01    89.07
   50.00   110.00     -16.67    4.87    4.90    0.00396    85.22  LEFT      1.09315E-01    64.13    1.30607E+00    66.85
   55.00   110.00     -16.25    6.51    6.53    0.00620    85.85  RIGHT     1.14710E-01   -97.30    1.57688E+00  -102.22
   60.00   110.00     -24.73    0.14    0.15    0.03535    87.43  LEFT      4.32379E-02  -168.42    7.57031E-01  -130.09
   65.00   110.00     -18.80   10.49   10.50    0.00544    88.06  LEFT      8.55619E-02    58.68    2.49438E+00    67.82
   70.00   110.00     -23.51    6.59    6.59    0.00877    88.28  RIGHT     4.97712E-02   -89.39    1.59045E+00  -105.68
   75.00   110.00     -25.48    3.81    3.81    0.03432    89.96  LEFT      3.96652E-02   148.26    1.15544E+00  -122.92
   80.00   110.00     -25.60   12.45   12.45    0.01189   -89.78  LEFT      3.91105E-02   -43.23    3.12458E+00    65.04
   85.00   110.00     -26.64   10.98   10.98    0.00794   -89.40  LEFT      3.47085E-02   103.52    2.63879E+00  -113.64
   90.00   110.00    -999.99 -184.17 -184.16    0.01821   -88.79  LEFT      1.28360E-11   -74.41    4.61180E-10    64.70
    0.00   120.00     -15.49  -10.82   -9.55    0.00147    59.71  LEFT      1.25223E-01   -56.95    2.14336E-01   -56.75
    5.00   120.00     -16.12  -11.35  -10.10    0.00305    59.98  RIGHT     1.16523E-01   -65.42    2.01676E-01   -65.82
   10.00   120.00     -20.64  -15.64  -14.45    0.02106    60.67  RIGHT     6.92303E-02   -79.26    1.23122E-01   -82.09
   15.00   120.00     -25.21  -17.91  -17.17    0.01439    66.69  RIGHT     4.08898E-02   136.37    9.48360E-02   134.10
   20.00   120.00     -12.75   -5.25   -4.54    0.01639    67.15  RIGHT     1.71655E-01   107.88    4.07074E-01   105.26
   25.00   120.00     -10.22   -1.61   -1.05    0.02507    69.70  RIGHT     2.29637E-01    96.97    6.19317E-01    92.56
   30.00   120.00     -18.82   -8.64   -8.24    0.03901    72.92  RIGHT     8.53488E-02    74.23    2.75549E-01    66.31
   35.00   120.00     -12.10   -0.46   -0.17    0.01515    75.35  RIGHT     1.85116E-01   -83.67    7.06983E-01   -87.22
   40.00   120.00     -12.26    1.27    1.46    0.01253    78.14  RIGHT     1.81572E-01  -101.71    8.62820E-01  -105.27
   45.00   120.00     -14.40    0.28    0.43    0.01415    79.58  RIGHT     1.41935E-01    95.44    7.69669E-01    90.89
   50.00   120.00     -13.77    3.82    3.89    0.00408    82.48  LEFT      1.52637E-01    67.40    1.15638E+00    69.21
   55.00   120.00     -13.41    5.44    5.50    0.00933    83.51  RIGHT     1.59045E-01   -95.33    1.39414E+00  -100.08
   60.00   120.00     -22.23   -0.95   -0.92    0.05119    86.02  LEFT      5.76617E-02  -163.92    6.67876E-01  -127.36
   65.00   120.00     -16.04    9.42    9.43    0.00803    86.98  LEFT      1.17497E-01    61.55    2.20354E+00    70.23
   70.00   120.00     -20.97    5.50    5.51    0.01262    87.38  RIGHT     6.66165E-02   -87.90    1.40388E+00  -103.36
   75.00   120.00     -23.04    2.72    2.74    0.05152    90.00  LEFT      5.25358E-02   149.82    1.01963E+00  -120.25
   80.00   120.00     -22.64   11.37   11.37    0.01843   -89.56  LEFT      5.50072E-02   -44.91    2.75785E+00    67.58
   85.00   120.00     -23.06    9.90    9.90    0.01278   -88.94  LEFT      5.23823E-02   103.52    2.32879E+00  -111.11
   90.00   120.00    -999.99 -185.25 -185.24    0.02832   -87.97  LEFT      1.84878E-11   -74.11    4.06993E-10    67.26
    0.00   130.00     -13.33  -11.90   -9.55    0.00147    49.71  LEFT      1.60539E-01   -56.90    1.89335E-01   -56.73
    5.00   130.00     -14.00  -12.47  -10.16    0.00355    50.03  RIGHT     1.48597E-01   -64.51    1.77303E-01   -64.92
   10.00   130.00     -18.55  -16.78  -14.56    0.02404    50.82  RIGHT     8.80518E-02   -77.17    1.08000E-01   -79.99
   15.00   130.00     -23.60  -19.48  -18.06    0.01638    58.10  RIGHT     4.92473E-02   137.32    7.91050E-02   135.23
   20.00   130.00     -10.91   -6.65   -5.27    0.02095    58.53  RIGHT     2.12186E-01   109.75    3.46457E-01   107.05
   25.00   130.00      -8.38   -3.02   -1.91    0.03423    61.69  RIGHT     2.84018E-01    99.64    5.26341E-01    94.94
   30.00   130.00     -16.96  -10.10   -9.29    0.06052    65.76  RIGHT     1.05785E-01    79.14    2.32884E-01    69.93
   35.00   130.00     -10.43   -1.98   -1.40    0.02125    69.32  RIGHT     2.24313E-01   -81.18    5.93396E-01   -84.86
   40.00   130.00     -10.52   -0.25    0.14    0.02258    73.01  RIGHT     2.21880E-01   -97.57    7.24187E-01  -102.19
   45.00   130.00     -12.90   -1.30   -1.01    0.01870    75.30  RIGHT     1.68847E-01    97.76    6.41893E-01    93.41
   50.00   130.00     -12.12    2.25    2.41    0.00051    79.18  LEFT      1.84562E-01    72.34    9.65683E-01    72.49
   55.00   130.00     -11.94    3.85    3.97    0.01308    80.81  RIGHT     1.88530E-01   -92.37    1.16132E+00   -97.11
   60.00   130.00     -21.17   -2.56   -2.50    0.06243    84.33  LEFT      6.50901E-02  -156.02    5.54735E-01  -123.52
   65.00   130.00     -14.67    7.82    7.84    0.00988    85.74  LEFT      1.37633E-01    65.98    1.83308E+00    73.58
   70.00   130.00     -20.03    3.89    3.91    0.01600    86.47  RIGHT     7.42612E-02   -85.55    1.16626E+00  -100.16
   75.00   130.00     -22.25    1.11    1.13    0.06789   -89.92  LEFT      5.74990E-02   152.34    8.46806E-01  -116.53
   80.00   130.00     -20.97    9.75    9.76    0.02541   -89.19  LEFT      6.66068E-02   -47.96    2.29071E+00    71.10
   85.00   130.00     -20.53    8.28    8.29    0.01847   -88.21  LEFT      7.00741E-02   103.07    1.93389E+00  -107.61
   90.00   130.00    -999.99 -186.87 -186.85    0.03930   -86.78  LEFT      2.31810E-11   -74.10    3.37969E-10    70.81
    0.00   140.00     -11.83  -13.44   -9.55    0.00147    39.71  LEFT      1.90978E-01   -56.87    1.58581E-01   -56.70
    5.00   140.00     -12.55  -14.06  -10.23    0.00346    40.03  RIGHT     1.75744E-01   -63.39    1.47646E-01   -63.79
   10.00   140.00     -17.09  -18.38  -14.68    0.02398    40.75  RIGHT     1.04126E-01   -74.58    8.97483E-02   -77.36
   15.00   140.00     -22.88  -21.68  -19.23    0.01986    48.96  RIGHT     5.34948E-02   138.96    6.14404E-02   136.67
   20.00   140.00      -9.83   -8.61   -6.17    0.02481    49.04  RIGHT     2.40196E-01   112.22    2.76641E-01   109.35
   25.00   140.00      -7.28   -4.99   -2.97    0.04315    52.48  RIGHT     3.22423E-01   103.13    4.19524E-01    98.02
   30.00   140.00     -15.75  -12.13  -10.56    0.08778    56.83  RIGHT     1.21481E-01    85.60    1.84482E-01    74.66
   35.00   140.00      -9.60   -4.10   -3.02    0.02875    62.05  RIGHT     2.46845E-01   -77.87    4.64637E-01   -81.84
   40.00   140.00      -9.55   -2.37   -1.61    0.03931    66.44  RIGHT     2.48268E-01   -92.07    5.67191E-01   -98.21
   45.00   140.00     -12.31   -3.50   -2.97    0.02357    70.10  RIGHT     1.80623E-01   100.81    4.97889E-01    96.59
   50.00   140.00     -11.27    0.06    0.37    0.00997    74.83  RIGHT     2.03673E-01    78.99    7.50613E-01    76.73
   55.00   140.00     -11.39    1.63    1.84    0.01805    77.45  RIGHT     2.00751E-01   -88.48    8.98996E-01   -93.35
   60.00   140.00     -21.09   -4.82   -4.72    0.06388    82.05  LEFT      6.57376E-02  -143.62    4.27906E-01  -118.54
   65.00   140.00     -14.26    5.58    5.62    0.01007    84.21  LEFT      1.44336E-01    72.12    1.41600E+00    77.85
   70.00   140.00     -20.37    1.63    1.66    0.01846    85.58  RIGHT     7.14444E-02   -82.60    8.98904E-01   -96.11
   75.00   140.00     -22.88   -1.15   -1.12    0.08192   -89.78  LEFT      5.35132E-02   155.56    6.52544E-01  -111.78
   80.00   140.00     -20.04    7.49    7.50    0.03294   -88.50  LEFT      7.41828E-02   -52.78    1.76505E+00    75.56
   85.00   140.00     -18.60    6.02    6.03    0.02557   -86.97  LEFT      8.75828E-02   102.67    1.48950E+00  -103.18
   90.00   140.00    -999.99 -189.14 -189.09    0.05144   -84.91  LEFT      2.67564E-11   -74.39    2.60300E-10    75.32
    0.00   150.00     -10.77  -15.65   -9.55    0.00147    29.71  LEFT      2.15614E-01   -56.85    1.23009E-01   -56.65
    5.00   150.00     -11.55  -16.32  -10.30    0.00278    29.99  RIGHT     1.97167E-01   -62.09    1.13769E-01   -62.46
   10.00   150.00     -16.08  -20.66  -14.78    0.02060    30.51  RIGHT     1.17072E-01   -71.56    6.90323E-02   -74.26
   15.00   150.00     -22.88  -24.70  -20.68    0.02510    39.03  RIGHT     5.35153E-02   141.30    4.33925E-02   138.36
   20.00   150.00      -9.32  -11.31   -7.19    0.02680    38.46  RIGHT     2.54913E-01   115.31    2.02561E-01   112.15
   25.00   150.00      -6.71   -7.72   -4.18    0.04916    41.68  RIGHT     3.44002E-01   107.46    3.06502E-01   101.79
   30.00   150.00     -14.98  -14.90  -11.93    0.11304    45.27  RIGHT     1.32764E-01    93.50    1.33992E-01    80.60
   35.00   150.00      -9.42   -7.04   -5.06    0.03755    52.76  RIGHT     2.52024E-01   -73.70    3.31259E-01   -78.17
   40.00   150.00      -9.12   -5.30   -3.80    0.06463    57.32  RIGHT     2.60645E-01   -85.14    4.04672E-01   -93.27
   45.00   150.00     -12.50   -6.56   -5.57    0.02902    63.25  RIGHT     1.76770E-01   104.57    3.50159E-01   100.44
   50.00   150.00     -10.99   -2.97   -2.33    0.03347    68.41  RIGHT     2.10346E-01    87.56    5.29626E-01    81.97
   55.00   150.00     -11.64   -1.46   -1.06    0.02564    72.85  RIGHT     1.95193E-01   -83.58    6.30208E-01   -88.79
   60.00   150.00     -21.54   -7.94   -7.75    0.04286    78.44  LEFT      6.24197E-02  -124.66    2.98778E-01  -112.32
   65.00   150.00     -14.66    2.46    2.55    0.00616    82.08  LEFT      1.37788E-01    80.46    9.89349E-01    83.04
   70.00   150.00     -22.15   -1.52   -1.48    0.01903    84.80  RIGHT     5.82069E-02   -79.35    6.25856E-01   -91.26
   75.00   150.00     -25.26   -4.30   -4.26    0.08921   -89.57  LEFT      4.06794E-02   159.27    4.54358E-01  -105.94
   80.00   150.00     -19.47    4.34    4.36    0.04078   -87.14  LEFT      7.91769E-02   -59.67    1.22826E+00    80.97
   85.00   150.00     -17.07    2.86    2.90    0.03486   -84.59  LEFT      1.04450E-01   102.59    1.03578E+00   -97.83
   90.00   150.00    -999.99 -192.29 -192.18    0.00000     0.00            2.91670E-11   -75.06    1.81007E-10    80.77
    0.00   160.00     -10.07  -18.99   -9.55    0.00147    19.71  LEFT      2.33698E-01   -56.83    8.36999E-02   -56.57
    5.00   160.00     -10.91  -19.73  -10.37    0.00157    19.90  RIGHT     2.12298E-01   -60.65    7.68397E-02   -60.93
   10.00   160.00     -15.39  -24.09  -14.84    0.01420    20.16  RIGHT     1.26627E-01   -68.20    4.65202E-02   -70.72
   15.00   160.00     -23.53  -28.99  -22.44    0.03185    28.02  RIGHT     4.96520E-02   144.48    2.64623E-02   140.09
   20.00   160.00      -9.25  -15.23   -8.28    0.02504    26.67  RIGHT     2.56752E-01   119.01    1.29098E-01   115.44
   25.00   160.00      -6.58  -11.66   -5.40    0.04711    29.05  RIGHT     3.49459E-01   112.64    1.94740E-01   106.29
   30.00   160.00     -14.49  -18.88  -13.15    0.11463    30.69  RIGHT     1.40467E-01   102.63    8.47250E-02    87.81
   35.00   160.00      -9.81  -11.27   -7.46    0.04516    40.19  RIGHT     2.40979E-01   -68.56    2.03690E-01   -73.80
   40.00   160.00      -9.12   -9.52   -6.31    0.09281    43.69  RIGHT     2.60620E-01   -76.66    2.49162E-01   -87.27
   45.00   160.00     -13.44  -10.95   -9.01    0.03531    53.12  RIGHT     1.58506E-01   109.15    2.11139E-01   104.93
   50.00   160.00     -11.13   -7.32   -5.81    0.07941    57.36  RIGHT     2.06837E-01    98.29    3.20924E-01    88.31
   55.00   160.00     -12.67   -5.90   -5.07    0.03950    65.44  RIGHT     1.73375E-01   -77.42    3.77995E-01   -83.40
   60.00   160.00     -21.69  -12.41  -11.93    0.03557    71.12  RIGHT     6.13528E-02   -98.03    1.78500E-01  -104.66
   65.00   160.00     -15.84   -2.02   -1.85    0.00988    78.49  RIGHT     1.20335E-01    92.11    5.90371E-01    89.22
   70.00   160.00     -26.34   -6.05   -6.01    0.01503    84.54  RIGHT     3.59270E-02   -76.56    3.71401E-01   -85.58
   75.00   160.00     -31.31   -8.82   -8.80    0.07434   -89.39  LEFT      2.02593E-02   163.02    2.69809E-01   -98.92
   80.00   160.00     -18.97   -0.20   -0.14    0.04686   -84.00  LEFT      8.38542E-02   -68.32    7.28236E-01    87.38
   85.00   160.00     -15.87   -1.69   -1.53    0.04710   -79.26  LEFT      1.19918E-01   102.94    6.13393E-01   -91.51
   90.00   160.00    -999.99 -196.84 -196.50    0.00000     0.00            3.04758E-11   -76.20    1.07195E-10    87.22
    0.00   170.00      -9.67  -25.01   -9.55    0.00147     9.71  LEFT      2.44682E-01   -56.82    4.18479E-02   -56.31
    5.00   170.00     -10.57  -25.83  -10.44    0.00003     9.78  LEFT      2.20798E-01   -59.10    3.80730E-02   -59.09
   10.00   170.00     -14.99  -30.27  -14.87    0.00570     9.77  RIGHT     1.32614E-01   -64.62    2.28503E-02   -66.57
   15.00   170.00     -24.84  -35.90  -24.51    0.03782    15.50  RIGHT     4.26720E-02   148.89    1.19429E-02   140.53
   20.00   170.00      -9.58  -21.80   -9.33    0.01734    13.73  RIGHT     2.47215E-01   123.37    6.05687E-02   119.07
   25.00   170.00      -6.79  -18.29   -6.50    0.03098    14.80  RIGHT     3.40873E-01   118.67    9.07047E-02   111.52
   30.00   170.00     -14.18  -25.59  -13.88    0.07042    14.56  RIGHT     1.45561E-01   112.64    3.91560E-02    96.42
   35.00   170.00     -10.73  -18.26  -10.03    0.04094    22.72  RIGHT     2.16562E-01   -62.18    9.10761E-02   -68.75
   40.00   170.00      -9.44  -16.51   -8.66    0.08716    23.50  RIGHT     2.51249E-01   -66.56    1.11347E-01   -80.06
   45.00   170.00     -15.26  -18.19  -13.47    0.03952    35.48  RIGHT     1.28661E-01   114.88    9.18096E-02   110.09
   50.00   170.00     -11.55  -14.51   -9.77    0.12741    35.11  RIGHT     1.97033E-01   111.38    1.40217E-01    95.99
   55.00   170.00     -14.60  -13.21  -10.84    0.06735    49.58  RIGHT     1.38821E-01   -69.28    1.62768E-01   -77.08
   60.00   170.00     -20.63  -19.78  -17.17    0.23112    48.12  RIGHT     6.93166E-02   -69.00    7.64600E-02   -95.16
   65.00   170.00     -17.70   -9.42   -8.82    0.07568    69.30  RIGHT     9.70891E-02   109.55    2.52026E-01    96.58
   70.00   170.00     -40.10  -13.51  -13.50    0.00531    87.34  LEFT      7.36585E-03   -85.50    1.57247E-01   -78.97
   75.00   170.00     -42.67  -16.28  -16.27    0.04758    89.66  RIGHT     5.48055E-03    -7.38    1.14316E-01   -90.39
   80.00   170.00     -18.34   -7.68   -7.32    0.03527   -73.77  LEFT      9.02357E-02   -77.51    3.07684E-01    95.00
   85.00   170.00     -14.97   -9.19   -8.17    0.05553   -62.92  LEFT      1.32978E-01   103.78    2.58677E-01   -84.04
   90.00   170.00    -999.99 -999.99 -999.99    0.00000     0.00            3.08295E-11   -77.88    4.52043E-11    94.88
    0.00   180.00      -9.55  -54.97   -9.55    0.00147    -0.29  LEFT      2.48231E-01   -56.80    1.32910E-03   107.24
    5.00   180.00     -10.50  -54.66  -10.50    0.00184    -0.34  LEFT      2.22549E-01   -57.48    1.37788E-03   105.23
   10.00   180.00     -14.84  -54.25  -14.84    0.00353    -0.58  LEFT      1.34909E-01   -60.94    1.44443E-03    99.79
   15.00   180.00     -26.89  -55.28  -26.89    0.03444     0.93  RIGHT     3.37001E-02   155.38    1.28281E-03    90.56
   20.00   180.00     -10.26  -61.42  -10.26    0.00254     0.06  RIGHT     2.28649E-01   128.42    6.33032E-04    62.03
   25.00   180.00      -7.31  -58.90   -7.31    0.00009    -0.15  LEFT      3.21304E-01   125.55    8.46205E-04   -56.36
   30.00   180.00     -14.00  -54.05  -14.00    0.00409    -0.52  LEFT      1.48699E-01   122.99    1.47828E-03   -81.29
   35.00   180.00     -12.19  -63.60  -12.19    0.00258     0.04  RIGHT     1.83080E-01   -54.09    4.92252E-04  -127.75
   40.00   180.00      -9.97  -54.35   -9.97    0.00209    -0.32  LEFT      2.36412E-01   -54.88    1.42803E-03   104.90
   45.00   180.00     -18.22  -62.09  -18.22    0.00527     0.21  RIGHT     9.14492E-02   122.84    5.85474E-04    67.39
   50.00   180.00     -12.07  -53.67  -12.07    0.00350    -0.43  LEFT      1.85614E-01   126.70    1.54487E-03   -78.16
   55.00   180.00     -17.70  -66.10  -17.70    0.00167    -0.20  RIGHT     9.70705E-02   -56.93    3.69243E-04   149.10
   60.00   180.00     -18.72  -54.75  -18.71    0.01013    -0.69  LEFT      8.63945E-02   -45.61    1.36433E-03    94.47
   65.00   180.00     -19.69  -54.03  -19.69    0.01035    -0.92  LEFT      7.72326E-02   136.79    1.48135E-03   -75.89
   70.00   180.00     -29.51  -67.65  -29.51    0.00323     0.69  LEFT      2.49205E-02   120.64    3.08704E-04   135.75
   75.00   180.00     -26.95  -56.11  -26.95    0.03419    -0.39  LEFT      3.34608E-02    -5.96    1.16681E-03    95.40
   80.00   180.00     -17.55  -52.46  -17.55    0.00194     1.02  LEFT      9.87790E-02   -85.59    1.77524E-03   -79.41
   85.00   180.00     -14.37  -55.31  -14.37    0.00043     0.51  RIGHT     1.42510E-01   105.04    1.27935E-03   102.29
   90.00   180.00    -999.99 -999.99 -999.99    0.00000     0.00            3.04131E-11   -80.08    2.59108E-13   -79.87
    0.00   190.00      -9.69  -24.50   -9.55    0.00147   -10.29  LEFT      2.44238E-01   -56.79    4.43648E-02   122.73
    5.00   190.00     -10.69  -25.37  -10.55    0.00363   -10.45  LEFT      2.17633E-01   -55.84    4.01571E-02   122.99
   10.00   190.00     -14.94  -29.28  -14.78    0.01205   -10.84  LEFT      1.33423E-01   -57.27    2.56103E-02   119.00
   15.00   190.00     -29.78  -40.61  -29.44    0.00298   -16.04  LEFT      2.41673E-02   165.95    6.94840E-03   -14.69
   20.00   190.00     -11.26  -23.52  -11.01    0.01775   -13.66  LEFT      2.03901E-01   134.20    4.96814E-02   -50.23
   25.00   190.00      -8.07  -19.68   -7.78    0.03727   -14.58  LEFT      2.94218E-01   133.19    7.73231E-02   -55.52
   30.00   190.00     -13.93  -26.02  -13.67    0.06826   -13.44  LEFT      1.49866E-01   133.11    3.72494E-02   -63.76
   35.00   190.00     -14.16  -21.14  -13.37    0.07138   -23.87  LEFT      1.45906E-01   -43.44    6.53626E-02   125.59
   40.00   190.00     -10.61  -18.71   -9.98    0.11294   -20.65  LEFT      2.19783E-01   -41.98    8.64012E-02   118.91
   45.00   190.00     -23.04  -22.06  -19.51    0.10849   -48.32  LEFT      5.24860E-02   137.39    5.87949E-02   -55.07
   50.00   190.00     -12.51  -17.42  -11.30    0.19758   -28.22  LEFT      1.76404E-01   143.39    1.00319E-01   -62.87
   55.00   190.00     -22.32  -17.14  -15.99    0.20101   -62.71  LEFT      5.70365E-02   -32.26    1.03570E-01   120.54
   60.00   190.00     -16.87  -22.76  -15.88    0.26919   -23.48  LEFT      1.06807E-01   -29.08    5.42173E-02   112.47
   65.00   190.00     -20.21  -13.41  -12.59    0.34748   -73.26  LEFT      7.27299E-02   172.42    1.59117E-01   -62.66
   70.00   190.00     -22.49  -18.10  -16.75    0.02409    58.92  RIGHT     5.59532E-02   122.47    9.27772E-02   119.35
   75.00   190.00     -21.84  -20.22  -17.94    0.60232   -56.57  LEFT      6.03242E-02    -1.53    7.26482E-02   114.41
   80.00   190.00     -16.77  -12.08  -10.81    0.21493    61.38  LEFT      1.08021E-01   -91.58    1.85477E-01   -63.39
   85.00   190.00     -14.07  -13.72  -10.88    0.09107    46.17  LEFT      1.47454E-01   106.62    1.53509E-01   117.03
   90.00   190.00    -999.99 -999.99 -999.99    0.00000     0.00            2.93912E-11   -82.68    2.70036E-11   -63.37
    0.00   200.00     -10.10  -18.74   -9.55    0.00147   -20.29  LEFT      2.32824E-01   -56.77    8.61016E-02   122.97
    5.00   200.00     -11.15  -19.68  -10.58    0.00517   -20.54  LEFT      2.06313E-01   -54.24    7.73230E-02   124.86
   10.00   200.00     -15.29  -23.60  -14.70    0.01866   -21.01  LEFT      1.28103E-01   -53.74    4.92436E-02   123.07
   15.00   200.00     -33.42  -36.75  -31.76    0.12050   -33.94  LEFT      1.58966E-02  -174.57    1.08317E-02    -9.36
   20.00   200.00     -12.54  -18.48  -11.56    0.03921   -26.71  LEFT      1.75881E-01   140.68    8.87439E-02   -44.90
   25.00   200.00      -9.05  -14.62   -7.99    0.06795   -27.60  LEFT      2.62815E-01   141.41    1.38477E-01   -48.03
   30.00   200.00     -14.02  -20.62  -13.16    0.10009   -24.57  LEFT      1.48324E-01   142.49    6.93599E-02   -52.47
   35.00   200.00     -16.54  -16.95  -13.73    0.14417   -43.60  LEFT      1.10981E-01   -28.85    1.05890E-01   134.72
   40.00   200.00     -11.27  -14.15   -9.46    0.16632   -35.13  LEFT      2.03580E-01   -28.58    1.46199E-01   131.44
   45.00   200.00     -30.17  -18.74  -18.44    0.19744   -79.70  LEFT      2.30971E-02  -175.17    8.61450E-02   -44.61
   50.00   200.00     -12.81  -13.31  -10.04    0.24425   -43.16  LEFT      1.70438E-01   159.89    1.61010E-01   -47.61
   55.00   200.00     -25.51  -13.96  -13.66    0.24610   -84.48  LEFT      3.94987E-02    24.07    1.49425E-01   134.16
   60.00   200.00     -15.53  -18.50  -13.76    0.24950   -34.04  LEFT      1.24649E-01   -17.23    8.85159E-02   132.94
   65.00   200.00     -18.90  -10.27   -9.71    0.33604   -81.12  LEFT      8.45326E-02  -157.62    2.28404E-01   -45.69
   70.00   200.00     -19.13  -15.67  -14.05    0.06993    56.23  LEFT      8.23977E-02   126.15    1.22708E-01   134.80
   75.00   200.00     -19.09  -16.88  -14.84    0.42255   -55.46  LEFT      8.27442E-02     2.92    1.06705E-01   135.16
   80.00   200.00     -16.20   -9.36   -8.54    0.32239    72.03  LEFT      1.15424E-01   -95.41    2.53740E-01   -44.62
   85.00   200.00     -14.10  -11.18   -9.39    0.22727    55.53  LEFT      1.46990E-01   108.37    2.05719E-01   135.55
   90.00   200.00    -999.99 -999.99 -999.99    0.00000     0.00            2.78578E-11   -85.49    3.65707E-11   -44.25
    0.00   210.00     -10.82  -15.49   -9.55    0.00147   -30.29  LEFT      2.14336E-01   -56.75    1.25223E-01   123.05
    5.00   210.00     -11.92  -16.48  -10.61    0.00629   -30.60  LEFT      1.89010E-01   -52.72    1.11792E-01   126.46
   10.00   210.00     -15.94  -20.34  -14.59    0.02268   -31.06  LEFT      1.18948E-01   -50.46    7.16878E-02   126.60
   15.00   210.00     -36.36  -35.88  -33.11    0.33005   -46.96  LEFT      1.13260E-02  -139.93    1.19677E-02     3.47
   20.00   210.00     -14.09  -16.04  -11.95    0.05696   -38.60  LEFT      1.47111E-01   147.78    1.17594E-01   -38.91
   25.00   210.00     -10.23  -12.05   -8.04    0.08457   -38.95  LEFT      2.29409E-01   149.88    1.86016E-01   -40.00
   30.00   210.00     -14.34  -17.51  -12.63    0.10073   -34.57  LEFT      1.42896E-01   150.78    9.92906E-02   -41.51
   35.00   210.00     -18.97  -15.46  -13.86    0.19850   -57.26  LEFT      8.39247E-02    -9.08    1.25739E-01   146.49
   40.00   210.00     -11.97  -11.94   -8.95    0.16127   -45.12  LEFT      1.87747E-01   -15.71    1.88505E-01   145.96
   45.00   210.00     -27.36  -18.55  -18.01    0.34010    82.78  LEFT      3.19330E-02  -100.32    8.80750E-02   -28.27
   50.00   210.00     -13.08  -11.49   -9.20    0.19974   -50.65  LEFT      1.65381E-01   174.63    1.98590E-01   -28.36
   55.00   210.00     -22.45  -13.68  -13.14    0.36306    88.34  LEFT      5.61855E-02    69.68    1.54277E-01   155.73
   60.00   210.00     -14.80  -16.01  -12.35    0.12692   -40.88  LEFT      1.35616E-01    -8.36    1.17917E-01   157.03
   65.00   210.00     -17.43   -9.64   -8.97    0.34020   -77.18  LEFT      1.00218E-01  -138.47    2.45608E-01   -19.12
   70.00   210.00     -17.36  -16.51  -13.90    0.30875    48.41  LEFT      1.00944E-01   129.94    1.11387E-01   164.44
   75.00   210.00     -17.63  -15.44  -13.39    0.18876   -52.68  LEFT      9.79061E-02     7.12    1.25952E-01   165.02
   80.00   210.00     -15.97   -9.09   -8.28    0.45030    87.19  LEFT      1.18445E-01   -97.53    2.61551E-01   -12.48
   85.00   210.00     -14.48  -11.25   -9.56    0.49902    63.16  LEFT      1.40658E-01   110.13    2.04130E-01   168.91
   90.00   210.00    -999.99 -999.99 -999.99    0.00000     0.00            2.58130E-11   -88.27    3.73793E-11   -10.88
    0.00   220.00     -11.90  -13.33   -9.55    0.00147   -40.29  LEFT      1.89335E-01   -56.73    1.60539E-01   123.10
    5.00   220.00     -13.03  -14.36  -10.63    0.00687   -40.62  LEFT      1.66288E-01   -51.32    1.42631E-01   127.88
   10.00   220.00     -16.93  -18.14  -14.49    0.02394   -41.03  LEFT      1.06055E-01   -47.52    9.22957E-02   129.71
   15.00   220.00     -36.36  -35.89  -33.11    0.48323   -47.52  LEFT      1.13247E-02  -104.07    1.19611E-02    24.24
   20.00   220.00     -15.91  -14.65  -12.23    0.06749   -49.17  LEFT      1.19336E-01   155.22    1.37903E-01   -32.58
   25.00   220.00     -11.64  -10.49   -8.02    0.08633   -48.85  LEFT      1.95077E-01   158.14    2.22804E-01   -31.81
   30.00   220.00     -15.01  -15.30  -12.14    0.08140   -44.01  LEFT      1.32402E-01   157.79    1.27953E-01   -31.52
   35.00   220.00     -20.85  -14.97  -13.97    0.23163   -65.51  LEFT      6.76043E-02    14.35    1.33031E-01   161.37
   40.00   220.00     -12.82  -10.46   -8.47    0.11990   -52.94  LEFT      1.70251E-01    -4.30    2.23566E-01   161.51
   45.00   220.00     -23.25  -19.38  -17.89    0.61088    78.16  LEFT      5.12444E-02   -78.94    7.99890E-02    -0.59
   50.00   220.00     -13.52  -10.04   -8.43    0.10904   -56.47  LEFT      1.57106E-01  -173.22    2.34538E-01    -6.70
   55.00   220.00     -19.86  -13.57  -12.65    0.47002   -83.12  LEFT      7.56948E-02    88.01    1.56238E-01  -170.84
   60.00   220.00     -14.71  -13.58  -11.10    0.01342   -48.73  RIGHT     1.36984E-01    -1.55    1.56082E-01  -180.00
   65.00   220.00     -16.63   -8.39   -7.79    0.21416   -72.06  LEFT      1.09818E-01  -126.28    2.83554E-01    16.28
   70.00   220.00     -16.68  -15.67  -13.13    0.83370    65.04  LEFT      1.09257E-01   133.43    1.22739E-01  -144.54
   75.00   220.00     -17.12  -13.15  -11.68    0.05249   -57.73  RIGHT     1.03847E-01    10.87    1.63994E-01  -162.48
   80.00   220.00     -16.22   -7.17   -6.66    0.26379   -76.75  LEFT      1.15191E-01   -98.52    3.26384E-01    29.68
   85.00   220.00     -15.27   -9.27   -8.30    0.48116   -81.80  LEFT      1.28421E-01   111.75    2.56306E-01  -145.55
   90.00   220.00    -999.99 -999.99 -999.99    0.00000     0.00            2.31898E-11   -90.86    4.75982E-11    32.54
    0.00   230.00     -13.44  -11.83   -9.55    0.00147   -50.29  LEFT      1.58581E-01   -56.70    1.90978E-01   123.13
    5.00   230.00     -14.60  -12.89  -10.65    0.00686   -50.60  LEFT      1.38836E-01   -50.09    1.69020E-01   129.11
   10.00   230.00     -18.39  -16.59  -14.39    0.02268   -50.92  LEFT      8.96537E-02   -44.98    1.10389E-01   132.36
   15.00   230.00     -35.54  -35.23  -32.37    0.42556   -46.46  LEFT      1.24512E-02   -83.71    1.28981E-02    50.15
   20.00   230.00     -18.05  -13.82  -12.43    0.06912   -58.55  LEFT      9.33255E-02   162.58    1.51774E-01   -26.29
   25.00   230.00     -13.37   -9.43   -7.96    0.07646   -57.75  LEFT      1.59775E-01   165.67    2.51706E-01   -24.01
   30.00   230.00     -16.15  -13.63  -11.70    0.05454   -53.24  LEFT      1.16070E-01   163.45    1.55107E-01   -23.06
   35.00   230.00     -22.05  -14.67  -13.94    0.22947   -70.08  LEFT      5.88518E-02    35.75    1.37678E-01   178.66
   40.00   230.00     -14.02   -9.17   -7.94    0.06679   -60.36  LEFT      1.48401E-01     5.09    2.59210E-01   176.22
   45.00   230.00     -21.70  -18.67  -16.92    0.63059   -70.49  LEFT      6.12974E-02   -70.38    8.68376E-02    36.36
   50.00   230.00     -14.40   -8.38   -7.41    0.02102   -63.46  LEFT      1.41912E-01  -163.82    2.83915E-01    13.17
   55.00   230.00     -18.93  -11.48  -10.76    0.32093   -74.33  LEFT      8.43262E-02    97.24    1.98627E-01  -136.75
   60.00   230.00     -15.33  -11.17   -9.76    0.11028   -58.58  RIGHT     1.27520E-01     3.64    2.05910E-01  -162.28
   65.00   230.00     -16.72   -5.58   -5.25    0.07316   -75.03  LEFT      1.08689E-01  -118.11    3.92172E-01    45.47
   70.00   230.00     -16.92  -11.26  -10.22    0.44674   -74.55  LEFT      1.06232E-01   136.39    2.03774E-01  -108.91
   75.00   230.00     -17.47  -10.14   -9.41    0.17052   -68.40  RIGHT     9.96837E-02    14.01    2.31760E-01  -138.83
   80.00   230.00     -17.05   -3.45   -3.27    0.07697   -78.99  LEFT      1.04703E-01   -98.92    5.00667E-01    58.63
   85.00   230.00     -16.57   -5.22   -4.92    0.19754   -79.48  LEFT      1.10657E-01   113.03    4.08391E-01  -115.83
   90.00   230.00    -999.99 -999.99 -199.71    0.00000     0.00            1.99049E-11   -93.18    7.44129E-11    61.20
    0.00   240.00     -15.65  -10.77   -9.55    0.00147   -60.29  LEFT      1.23009E-01   -56.65    2.15614E-01   123.15
    5.00   240.00     -16.82  -11.86  -10.66    0.00629   -60.54  LEFT      1.07455E-01   -49.05    1.90258E-01   130.10
   10.00   240.00     -20.53  -15.49  -14.30    0.01938   -60.77  LEFT      7.01419E-02   -42.90    1.25293E-01   134.49
   15.00   240.00     -35.83  -33.58  -31.55    0.30170   -53.83  LEFT      1.20465E-02   -73.41    1.55977E-02    71.73
   20.00   240.00     -20.67  -13.30  -12.57    0.06184   -67.04  LEFT      6.89748E-02   169.25    1.61143E-01   -20.55
   25.00   240.00     -15.66   -8.67   -7.88    0.05965   -66.07  LEFT      1.22883E-01   171.98    2.74562E-01   -17.19
   30.00   240.00     -18.00  -12.37  -11.32    0.02971   -62.43  LEFT      9.37902E-02   167.74    1.79389E-01   -16.40
   35.00   240.00     -23.34  -14.12  -13.63    0.18652   -73.72  LEFT      5.07365E-02    51.16    1.46609E-01  -164.52
   40.00   240.00     -15.84   -8.00   -7.34    0.02375   -67.97  LEFT      1.20245E-01    12.23    2.96645E-01  -171.68
   45.00   240.00     -21.91  -16.10  -15.09    0.35340   -69.35  LEFT      5.97894E-02   -65.68    1.16757E-01    63.57
   50.00   240.00     -16.02   -6.70   -6.22    0.02721   -71.18  RIGHT     1.17839E-01  -156.98    3.44601E-01    28.11
   55.00   240.00     -19.44   -8.65   -8.30    0.16971   -76.85  LEFT      7.94578E-02   102.72    2.75334E-01  -115.54
   60.00   240.00     -16.83   -9.14   -8.46    0.13744   -68.69  RIGHT     1.07398E-01     7.35    2.60034E-01  -150.18
   65.00   240.00     -17.84   -2.77   -2.64    0.01400   -80.03  LEFT      9.55644E-02  -112.62    5.41814E-01    62.69
   70.00   240.00     -18.16   -7.55   -7.19    0.22258   -79.05  LEFT      9.20913E-02   138.61    3.12510E-01   -92.85
   75.00   240.00     -18.79   -7.55   -7.23    0.16533   -77.65  RIGHT     8.56881E-02    16.34    3.12546E-01  -124.52
   80.00   240.00     -18.65   -0.30   -0.24    0.01438   -83.16  LEFT      8.70040E-02   -99.20    7.19984E-01    73.86
   85.00   240.00     -18.55   -1.91   -1.82    0.08259   -83.05  LEFT      8.81029E-02   113.75    5.98168E-01  -100.94
   90.00   240.00    -999.99 -196.81 -196.71    0.00000     0.00            1.59206E-11   -95.32    1.07614E-10    76.02
    0.00   250.00     -18.99  -10.07   -9.55    0.00147   -70.29  LEFT      8.36999E-02   -56.57    2.33698E-01   123.17
    5.00   250.00     -20.17  -11.18  -10.66    0.00523   -70.46  LEFT      7.30423E-02   -48.20    2.05782E-01   130.85
   10.00   250.00     -23.80  -14.75  -14.24    0.01463   -70.59  LEFT      4.80976E-02   -41.27    1.36390E-01   136.06
   15.00   250.00     -37.87  -31.90  -30.92    0.18975   -64.92  LEFT      9.52321E-03   -67.95    1.89347E-02    84.91
   20.00   250.00     -24.25  -12.97  -12.66    0.04698   -74.94  LEFT      4.56917E-02   174.70    1.67328E-01   -15.93
   25.00   250.00     -18.97   -8.14   -7.80    0.04016   -74.11  LEFT      8.38864E-02   176.76    2.91773E-01   -11.92
   30.00   250.00     -21.03  -11.48  -11.02    0.01186   -71.59  LEFT      6.62078E-02   170.62    1.98806E-01   -11.65
   35.00   250.00     -25.71  -13.39  -13.14    0.12425   -78.26  LEFT      3.86027E-02    60.87    1.59498E-01  -151.48
   40.00   250.00     -18.82   -7.05   -6.77    0.00047   -75.54  LEFT      8.53525E-02    17.06    3.31009E-01  -163.06
   45.00   250.00     -23.89  -13.77  -13.36    0.18571   -75.92  LEFT      4.76052E-02   -63.05    1.52743E-01    77.75
   50.00   250.00     -18.86   -5.34   -5.15    0.03664   -78.27  RIGHT     8.49702E-02  -152.60    4.03014E-01    37.85
   55.00   250.00     -21.59   -6.47   -6.34    0.08627   -81.32  LEFT      6.20321E-02   105.91    3.53865E-01  -104.32
   60.00   250.00     -19.60   -7.67   -7.40    0.11331   -77.22  RIGHT     7.80608E-02     9.46    3.08038E-01  -142.52
   65.00   250.00     -20.36   -0.74   -0.70    0.00268   -84.04  RIGHT     7.14742E-02  -109.31    6.84081E-01    72.17
   70.00   250.00     -20.75   -5.14   -5.03    0.11491   -83.18  LEFT      6.83345E-02   139.77    4.12141E-01   -84.88
   75.00   250.00     -21.43   -5.71   -5.60    0.11681   -83.45  RIGHT     6.32310E-02    17.54    3.86043E-01  -116.20
   80.00   250.00     -21.45    1.83    1.85    0.00241   -86.08  RIGHT     6.30249E-02   -99.96    9.20282E-01    82.06
   85.00   250.00     -21.63    0.29    0.32    0.03552   -85.89  LEFT      6.17723E-02   113.39    7.70373E-01   -93.05
   90.00   250.00    -999.99 -194.66 -194.63    0.00000     0.00            1.12854E-11   -97.74    1.37748E-10    83.99
    0.00   260.00     -25.01   -9.67   -9.55    0.00147   -80.29  LEFT      4.18479E-02   -56.31    2.44682E-01   123.18
    5.00   260.00     -26.18  -10.79  -10.67    0.00383   -80.36  LEFT      3.65748E-02   -47.36    2.15177E-01   131.31
   10.00   260.00     -29.74  -14.33  -14.20    0.00898   -80.39  LEFT      2.42666E-02   -39.84    1.43182E-01   137.03
   15.00   260.00     -43.06  -30.81  -30.56    0.09198   -77.26  LEFT      5.23818E-03   -65.11    2.14576E-02    91.57
   20.00   260.00     -30.26  -12.79  -12.71    0.02676   -82.53  LEFT      2.28660E-02   178.80    1.70942E-01   -12.94
   25.00   260.00     -24.80   -7.83   -7.74    0.02060   -82.02  LEFT      4.28738E-02   179.92    3.02676E-01    -8.60
   30.00   260.00     -26.65  -10.94  -10.83    0.00146   -80.69  LEFT      3.46599E-02   171.72    2.11371E-01    -8.80
   35.00   260.00     -30.73  -12.79  -12.72    0.06328   -83.72  LEFT      2.16750E-02    66.61    1.70828E-01  -143.70
   40.00   260.00     -24.40   -6.43   -6.36    0.00595   -82.80  RIGHT     4.49131E-02    19.27    3.55319E-01  -157.98
   45.00   260.00     -28.71  -12.36  -12.26    0.08201   -82.69  LEFT      2.73469E-02   -62.41    1.79663E-01    84.39
   50.00   260.00     -24.34   -4.48   -4.44    0.02494   -84.37  RIGHT     4.51889E-02  -151.12    4.44708E-01    43.23
   55.00   260.00     -26.54   -5.19   -5.16    0.03694   -85.59  LEFT      3.50867E-02   106.93    4.10108E-01   -98.81
   60.00   260.00     -24.98   -6.79   -6.73    0.06605   -84.06  RIGHT     4.20107E-02     8.93    3.40852E-01  -138.28
   65.00   260.00     -25.59    0.44    0.45    0.00492   -87.15  RIGHT     3.91388E-02  -108.67    7.83601E-01    77.00
   70.00   260.00     -25.95   -3.81   -3.78    0.04966   -86.55  LEFT      3.75521E-02   138.69    4.80605E-01   -80.95
   75.00   260.00     -26.66   -4.64   -4.61    0.06218   -87.18  RIGHT     3.46197E-02    16.37    4.36666E-01  -111.80
   80.00   260.00     -26.70    3.05    3.05    0.00520   -88.16  RIGHT     3.44735E-02  -102.94    1.05806E+00    86.25
   85.00   260.00     -27.10    1.53    1.53    0.01204   -87.99  LEFT      3.29212E-02   109.96    8.88470E-01   -89.03
   90.00   260.00    -999.99 -193.45 -193.44    0.00000     0.00            6.15747E-12  -102.42    1.58424E-10    88.07
    0.00   270.00     -54.97   -9.55   -9.55    0.00147    89.71  LEFT      1.32910E-03   107.24    2.48231E-01   123.20
    5.00   270.00     -57.04  -10.67  -10.67    0.00224    89.76  LEFT      1.04829E-03   103.67    2.18191E-01   131.49
   10.00   270.00     -61.08  -14.20  -14.20    0.00294    89.80  LEFT      6.57683E-04    96.94    1.45345E-01   137.39
   15.00   270.00     -91.17  -30.50  -30.50    0.00057    89.96  LEFT      2.05900E-05    55.63    2.22506E-02    93.58
   20.00   270.00     -61.21  -12.73  -12.73    0.00377   -90.00  LEFT      6.48439E-04  -103.18    1.72130E-01   -11.93
   25.00   270.00     -59.85   -7.72   -7.72    0.00166   -89.89  LEFT      7.57955E-04  -145.43    3.06362E-01    -7.46
   30.00   270.00     -54.74  -10.77  -10.77    0.00428   -89.73  RIGHT     1.36612E-03   129.65    2.15653E-01    -7.82
   35.00   270.00     -52.14  -12.57  -12.57    0.00763   -89.59  LEFT      1.84189E-03    85.38    1.75229E-01  -141.16
   40.00   270.00     -52.10   -6.22   -6.22    0.00360   -89.79  RIGHT     1.85017E-03   -21.44    3.64074E-01  -156.30
   45.00   270.00     -48.12  -11.90  -11.90    0.00335   -89.14  LEFT      2.92425E-03   -81.09    1.89421E-01    86.36
   50.00   270.00     -48.82   -4.19   -4.19    0.00542   -89.87  RIGHT     2.69986E-03   157.65    4.59793E-01    44.97
   55.00   270.00     -47.18   -4.77   -4.77    0.00043   -89.57  LEFT      3.26032E-03    86.13    4.30354E-01   -97.14
   60.00   270.00     -45.15   -6.50   -6.50    0.01167   -89.96  RIGHT     4.11971E-03   -43.73    3.52524E-01  -136.90
   65.00   270.00     -47.24    0.82    0.82    0.00295   -89.85  RIGHT     3.23773E-03  -149.69    8.19243E-01    78.51
   70.00   270.00     -44.81   -3.38   -3.38    0.00075   -89.52  RIGHT     4.28421E-03    95.22    5.04909E-01   -79.74
   75.00   270.00     -45.32   -4.29   -4.29    0.00877    89.92  RIGHT     4.03743E-03   -29.36    4.54723E-01  -110.41
   80.00   270.00     -43.06    3.44    3.44    0.00400   -89.86  RIGHT     5.23893E-03  -150.24    1.10710E+00    87.56
   85.00   270.00     -42.79    1.93    1.93    0.00373   -89.74  RIGHT     5.40472E-03    52.26    9.30441E-01   -87.78
   90.00   270.00    -999.99 -193.05 -193.05    0.00000     0.00            1.15122E-12  -150.71    1.65776E-10    89.34
    0.00   280.00     -24.50   -9.69   -9.55    0.00147    79.71  LEFT      4.43648E-02   122.73    2.44238E-01   123.21
    5.00   280.00     -25.76  -10.81  -10.67    0.00065    79.87  LEFT      3.83845E-02   131.15    2.14741E-01   131.36
   10.00   280.00     -29.41  -14.35  -14.22    0.00305    79.99  RIGHT     2.52073E-02   138.16    1.42766E-01   137.14
   15.00   280.00     -43.08  -30.99  -30.73    0.09292    77.00  RIGHT     5.22861E-03   114.64    2.10171E-02    91.48
   20.00   280.00     -30.35  -12.79  -12.71    0.01938    82.54  RIGHT     2.26222E-02    -4.45    1.70899E-01   -13.02
   25.00   280.00     -25.06   -7.83   -7.75    0.01723    82.23  RIGHT     4.16193E-02    -1.25    3.02428E-01    -8.57
   30.00   280.00     -27.16  -10.95  -10.85    0.00964    81.22  RIGHT     3.26839E-02    -5.02    2.11126E-01    -8.68
   35.00   280.00     -32.24  -12.80  -12.75    0.04747    84.54  RIGHT     1.82123E-02  -117.05    1.70651E-01  -143.72
   40.00   280.00     -24.94   -6.43   -6.37    0.00099    83.23  RIGHT     4.21893E-02  -157.42    3.55226E-01  -157.90
   45.00   280.00     -30.63  -12.37  -12.30    0.07478    84.49  RIGHT     2.19090E-02   122.59    1.79457E-01    84.41
   50.00   280.00     -24.97   -4.48   -4.44    0.01410    84.66  LEFT      4.20497E-02    34.65    4.44797E-01    43.30
   55.00   280.00     -28.16   -5.19   -5.17    0.03574    86.49  RIGHT     2.91175E-02   -68.44    4.10096E-01   -98.79
   60.00   280.00     -25.93   -6.79   -6.74    0.04241    84.18  LEFT      3.76484E-02  -161.03    3.40975E-01  -138.20
   65.00   280.00     -26.67    0.44    0.45    0.00107    87.48  RIGHT     3.45628E-02    78.43    7.83899E-01    77.04
   70.00   280.00     -27.36   -3.81   -3.79    0.05105    87.56  RIGHT     3.19523E-02   -30.64    4.80663E-01   -80.93
   75.00   280.00     -28.01   -4.64   -4.62    0.04399    87.05  LEFT      2.96215E-02  -152.34    4.36901E-01  -111.76
   80.00   280.00     -28.34    3.05    3.05    0.00304    88.47  RIGHT     2.85220E-02    92.77    1.05851E+00    86.28
   85.00   280.00     -28.28    1.53    1.54    0.01967    88.53  RIGHT     2.87302E-02   -51.50    8.88812E-01   -89.01
   90.00   280.00    -999.99 -193.44 -193.44    0.00000     0.00            4.95492E-12    97.92    1.58491E-10    88.09
    0.00   290.00     -18.74  -10.10   -9.55    0.00147    69.71  LEFT      8.61016E-02   122.97    2.32824E-01   123.23
    5.00   290.00     -19.97  -11.21  -10.67    0.00076    69.96  RIGHT     7.47470E-02   131.09    2.04921E-01   130.95
   10.00   290.00     -23.65  -14.80  -14.27    0.00852    70.15  RIGHT     4.89505E-02   137.81    1.35563E-01   136.28
   15.00   290.00     -37.96  -32.30  -31.26    0.19800    64.14  RIGHT     9.42204E-03   112.11    1.80796E-02    84.40
   20.00   290.00     -24.29  -12.98  -12.67    0.04006    74.94  RIGHT     4.54934E-02    -6.99    1.67266E-01   -16.08
   25.00   290.00     -19.10   -8.16   -7.82    0.03664    74.29  RIGHT     8.26275E-02    -3.85    2.91270E-01   -11.86
   30.00   290.00     -21.30  -11.50  -11.07    0.01897    72.10  RIGHT     6.41692E-02    -7.69    1.98288E-01   -11.41
   35.00   290.00     -26.51  -13.41  -13.20    0.10688    79.03  RIGHT     3.52253E-02  -121.48    1.59171E-01  -151.54
   40.00   290.00     -19.11   -7.05   -6.79    0.00657    75.99  RIGHT     8.25316E-02  -161.29    3.30756E-01  -162.89
   45.00   290.00     -24.95  -13.79  -13.47    0.17681    77.96  RIGHT     4.21638E-02   119.60    1.52329E-01    77.77
   50.00   290.00     -19.20   -5.34   -5.16    0.02597    78.63  LEFT      8.17030E-02    30.34    4.03109E-01    38.00
   55.00   290.00     -22.47   -6.47   -6.36    0.08384    82.34  RIGHT     5.60686E-02   -71.67    3.53811E-01  -104.26
   60.00   290.00     -20.10   -7.67   -7.43    0.08908    77.49  LEFT      7.36583E-02  -165.36    3.08230E-01  -142.35
   65.00   290.00     -20.94   -0.74   -0.70    0.00356    84.43  RIGHT     6.68541E-02    74.36    6.84605E-01    72.25
   70.00   290.00     -21.49   -5.14   -5.04    0.11587    84.35  RIGHT     6.27894E-02   -34.66    4.12235E-01   -84.84
   75.00   290.00     -22.13   -5.70   -5.61    0.09662    83.40  LEFT      5.82791E-02  -156.58    3.86468E-01  -116.10
   80.00   290.00     -22.29    1.84    1.86    0.00654    86.46  RIGHT     5.72632E-02    88.18    9.21112E-01    82.12
   85.00   290.00     -22.22    0.30    0.32    0.04362    86.52  RIGHT     5.77015E-02   -57.19    7.71006E-01   -92.99
   90.00   290.00    -999.99 -194.66 -194.63    0.00000     0.00            1.01493E-11    92.73    1.37874E-10    84.05
    0.00   300.00     -15.49  -10.82   -9.55    0.00147    59.71  LEFT      1.25223E-01   123.05    2.14336E-01   123.25
    5.00   300.00     -16.70  -11.92  -10.67    0.00185    60.03  RIGHT     1.08986E-01   130.51    1.88993E-01   130.27
   10.00   300.00     -20.44  -15.57  -14.35    0.01300    60.28  RIGHT     7.08474E-02   136.57    1.24066E-01   134.84
   15.00   300.00     -36.02  -34.26  -32.04    0.32670    52.17  RIGHT     1.17893E-02   106.78    1.44368E-02    69.73
   20.00   300.00     -20.69  -13.30  -12.57    0.05572    67.03  RIGHT     6.88570E-02   -11.94    1.61101E-01   -20.78
   25.00   300.00     -15.75   -8.70   -7.91    0.05598    66.21  RIGHT     1.21617E-01    -8.45    2.73795E-01   -17.10
   30.00   300.00     -18.20  -12.41  -11.39    0.03514    62.88  RIGHT     9.16436E-02   -11.06    1.78550E-01   -16.02
   35.00   300.00     -23.90  -14.15  -13.71    0.16696    74.37  RIGHT     4.75810E-02  -131.15    1.46199E-01  -164.65
   40.00   300.00     -16.06   -8.02   -7.38    0.02834    68.44  RIGHT     1.17265E-01  -166.68    2.96102E-01  -171.42
   45.00   300.00     -22.74  -16.14  -15.29    0.34108    72.03  RIGHT     5.43377E-02   116.29    1.16152E-01    63.53
   50.00   300.00     -16.28   -6.70   -6.25    0.01751    71.66  LEFT      1.14359E-01    25.02    3.44519E-01    28.37
   55.00   300.00     -20.12   -8.65   -8.35    0.16415    78.09  RIGHT     7.34988E-02   -75.56    2.75163E-01  -115.43
   60.00   300.00     -17.19   -9.14   -8.51    0.11360    69.22  LEFT      1.02941E-01  -169.02    2.60175E-01  -149.88
   65.00   300.00     -18.28   -2.76   -2.64    0.02024    80.56  RIGHT     9.08711E-02    69.98    5.42387E-01    62.85
   70.00   300.00     -18.69   -7.55   -7.22    0.22237    80.58  RIGHT     8.66619E-02   -37.37    3.12588E-01   -92.76
   75.00   300.00     -19.29   -7.53   -7.25    0.14210    77.82  LEFT      8.08376E-02  -159.45    3.13052E-01  -124.33
   80.00   300.00     -19.21   -0.29   -0.23    0.02439    83.69  RIGHT     8.16222E-02    86.59    7.21026E-01    73.99
   85.00   300.00     -18.93   -1.90   -1.81    0.09125    83.89  RIGHT     8.42856E-02   -59.84    5.98972E-01  -100.82
   90.00   300.00    -999.99 -196.79 -196.71    0.00000     0.00            1.49136E-11    91.98    1.07775E-10    76.14
    0.00   310.00     -13.33  -11.90   -9.55    0.00147    49.71  LEFT      1.60539E-01   123.10    1.89335E-01   123.27
    5.00   310.00     -14.51  -12.97  -10.66    0.00247    50.06  RIGHT     1.40130E-01   129.62    1.67384E-01   129.34
   10.00   310.00     -18.35  -16.71  -14.44    0.01597    50.35  RIGHT     9.01515E-02   134.70    1.08783E-01   132.84
   15.00   310.00     -35.88  -36.02  -32.94    0.48524    44.26  RIGHT     1.19733E-02    96.35    1.17822E-02    44.57
   20.00   310.00     -18.05  -13.82  -12.43    0.06414    58.54  RIGHT     9.33262E-02   -18.37    1.51799E-01   -26.60
   25.00   310.00     -13.44   -9.46   -8.00    0.07272    57.84  RIGHT     1.58501E-01   -14.69    2.50677E-01   -23.91
   30.00   310.00     -16.33  -13.70  -11.81    0.05795    53.58  RIGHT     1.13763E-01   -15.59    1.53885E-01   -22.52
   35.00   310.00     -22.45  -14.69  -14.02    0.20806    70.51  RIGHT     5.62125E-02  -146.92    1.37303E-01   178.42
   40.00   310.00     -14.21   -9.21   -8.01    0.06945    60.82  RIGHT     1.45205E-01  -174.12    2.58219E-01   176.57
   45.00   310.00     -22.51  -18.74  -17.22    0.59998    75.20  RIGHT     5.58075E-02   111.31    8.61942E-02    36.06
   50.00   310.00     -14.64   -8.40   -7.47    0.02845    64.05  RIGHT     1.38135E-01    17.70    2.83371E-01    13.56
   55.00   310.00     -19.56  -11.50  -10.87    0.30729    75.94  RIGHT     7.83507E-02   -81.38    1.98217E-01  -136.59
   60.00   310.00     -15.65  -11.18   -9.85    0.08953    59.39  LEFT      1.22979E-01  -173.43    2.05795E-01  -161.79
   65.00   310.00     -17.12   -5.57   -5.28    0.07783    75.80  RIGHT     1.03874E-01    63.99    3.92413E-01    45.76
   70.00   310.00     -17.36  -11.26  -10.31    0.44285    77.15  RIGHT     1.00964E-01   -40.22    2.03727E-01  -108.74
   75.00   310.00     -17.89  -10.13   -9.46    0.14571    69.04  LEFT      9.49754E-02  -162.49    2.32122E-01  -138.47
   80.00   310.00     -17.46   -3.44   -3.27    0.08746    79.86  RIGHT     9.98682E-02    85.84    5.01538E-01    58.89
   85.00   310.00     -16.84   -5.21   -4.92    0.20567    80.77  RIGHT     1.07186E-01   -62.01    4.09091E-01  -115.60
   90.00   310.00    -999.99 -200.00 -199.72    0.00000     0.00            1.90763E-11    92.61    7.45546E-11    61.45
    0.00   320.00     -11.83  -13.44   -9.55    0.00147    39.71  LEFT      1.90978E-01   123.13    1.58581E-01   123.30
    5.00   320.00     -12.98  -14.48  -10.65    0.00255    40.06  RIGHT     1.67284E-01   128.49    1.40669E-01   128.19
   10.00   320.00     -16.92  -18.33  -14.55    0.01689    40.36  RIGHT     1.06285E-01   132.32    9.03422E-02   130.36
   15.00   320.00     -36.93  -36.29  -33.58    0.57098    49.18  RIGHT     1.06133E-02    74.73    1.14289E-02    15.01
   20.00   320.00     -15.90  -14.65  -12.22    0.06404    49.15  RIGHT     1.19491E-01   -25.58    1.38032E-01   -32.98
   25.00   320.00     -11.70  -10.54   -8.07    0.08269    48.87  RIGHT     1.93792E-01   -22.18    2.21534E-01   -31.72
   30.00   320.00     -15.17  -15.42  -12.28    0.08266    44.19  RIGHT     1.29878E-01   -21.38    1.26297E-01   -30.84
   35.00   320.00     -21.06  -14.98  -14.02    0.21031    65.66  RIGHT     6.59510E-02  -168.59    1.32804E-01   161.04
   40.00   320.00     -13.00  -10.52   -8.57    0.12076    53.33  RIGHT     1.66806E-01   176.26    2.22014E-01   161.91
   45.00   320.00     -24.26  -19.42  -18.18    0.54254   -79.04  RIGHT     4.56563E-02   102.42    7.96940E-02    -1.22
   50.00   320.00     -13.75  -10.09   -8.54    0.11369    57.07  RIGHT     1.52959E-01     7.96    2.33245E-01    -6.21
   55.00   320.00     -20.59  -13.61  -12.81    0.43735    84.37  RIGHT     6.96629E-02   -90.98    1.55528E-01  -170.74
   60.00   320.00     -15.01  -13.62  -11.25    0.00264    49.59  RIGHT     1.32315E-01  -178.96    1.55415E-01  -179.27
   65.00   320.00     -17.04   -8.42   -7.86    0.21341    73.09  RIGHT     1.04810E-01    55.52    2.82800E-01    16.73
   70.00   320.00     -17.09  -15.69  -13.32    0.77828   -65.21  RIGHT     1.04195E-01   -43.37    1.22341E-01  -144.29
   75.00   320.00     -17.50  -13.16  -11.80    0.03117    58.80  LEFT      9.93175E-02  -165.88    1.63799E-01  -161.86
   80.00   320.00     -16.53   -7.18   -6.70    0.27006    78.23  RIGHT     1.11076E-01    85.75    3.26204E-01    30.17
   85.00   320.00     -15.48   -9.27   -8.34    0.47953    84.29  RIGHT     1.25370E-01   -64.12    2.56227E-01  -145.09
   90.00   320.00    -999.99 -999.99 -999.99    0.00000     0.00            2.25784E-11    94.03    4.75929E-11    33.04
    0.00   330.00     -10.77  -15.65   -9.55    0.00147    29.71  LEFT      2.15614E-01   123.15    1.23009E-01   123.35
    5.00   330.00     -11.89  -16.65  -10.64    0.00208    30.01  RIGHT     1.89656E-01   127.16    1.09557E-01   126.89
   10.00   330.00     -15.94  -20.61  -14.67    0.01534    30.28  RIGHT     1.18853E-01   129.48    6.94301E-02   127.47
   15.00   330.00     -36.85  -35.75  -33.25    0.38570    49.92  RIGHT     1.07053E-02    35.58    1.21591E-02    -7.02
   20.00   330.00     -14.07  -16.02  -11.93    0.05546    38.59  RIGHT     1.47451E-01   -32.92    1.17851E-01   -39.43
   25.00   330.00     -10.28  -12.12   -8.10    0.08126    38.89  RIGHT     2.28114E-01   -30.42    1.84550E-01   -39.92
   30.00   330.00     -14.52  -17.69  -12.81    0.09979    34.53  RIGHT     1.40096E-01   -28.49    9.71862E-02   -40.67
   35.00   330.00     -19.01  -15.46  -13.87    0.17993    57.20  RIGHT     8.35546E-02   168.30    1.25710E-01   146.08
   40.00   330.00     -12.15  -12.04   -9.08    0.16076    45.38  RIGHT     1.84059E-01   164.63    1.86403E-01   146.37
   45.00   330.00     -29.04  -18.53  -18.16    0.28284   -84.54  RIGHT     2.63327E-02    78.18    8.82341E-02   -28.94
   50.00   330.00     -13.32  -11.58   -9.35    0.20237    51.19  RIGHT     1.60840E-01    -4.50    1.96491E-01   -27.87
   55.00   330.00     -23.44  -13.72  -13.28    0.32604   -88.67  RIGHT     5.01675E-02  -110.67    1.53484E-01   155.68
   60.00   330.00     -15.12  -16.12  -12.58    0.14062    41.55  RIGHT     1.30756E-01   174.05    1.16455E-01   157.93
   65.00   330.00     -17.90   -9.71   -9.10    0.33046    78.23  RIGHT     9.49334E-02    42.99    2.43600E-01   -18.72
   70.00   330.00     -17.79  -16.56  -14.12    0.27592   -49.70  RIGHT     9.61283E-02   -46.71    1.10699E-01   164.48
   75.00   330.00     -18.02  -15.52  -13.58    0.20888    53.90  RIGHT     9.35885E-02  -169.57    1.24802E-01   165.78
   80.00   330.00     -16.21   -9.16   -8.38    0.43684   -85.35  RIGHT     1.15234E-01    86.57    2.59488E-01   -11.95
   85.00   330.00     -14.64  -11.31   -9.66    0.46852   -62.42  RIGHT     1.38082E-01   -66.25    2.02576E-01   169.38
   90.00   330.00    -999.99 -999.99 -999.99    0.00000     0.00            2.54433E-11    95.99    3.70890E-11   -10.33
    0.00   340.00     -10.07  -18.99   -9.55    0.00147    19.71  LEFT      2.33698E-01   123.17    8.36999E-02   123.43
    5.00   340.00     -11.14  -19.96  -10.61    0.00109    19.93  RIGHT     2.06565E-01   125.70    7.48793E-02   125.50
   10.00   340.00     -15.33  -24.05  -14.78    0.01116    20.10  RIGHT     1.27630E-01   126.29    4.67397E-02   124.31
   15.00   340.00     -33.44  -36.18  -31.59    0.17981    35.49  RIGHT     1.58500E-02     0.34    1.15626E-02   -21.12
   20.00   340.00     -12.51  -18.44  -11.53    0.03998    26.74  RIGHT     1.76427E-01   -39.94    8.91312E-02   -45.64
   25.00   340.00      -9.10  -14.72   -8.04    0.06528    27.46  RIGHT     2.61509E-01   -38.88    1.36874E-01   -47.98
   30.00   340.00     -14.21  -20.94  -13.37    0.09672    24.26  RIGHT     1.45196E-01   -36.87    6.68549E-02   -51.48
   35.00   340.00     -16.48  -16.94  -13.69    0.13112    43.46  RIGHT     1.11712E-01   149.17    1.06047E-01   134.21
   40.00   340.00     -11.44  -14.30   -9.63    0.16448    35.20  RIGHT     1.99712E-01   151.56    1.43679E-01   131.81
   45.00   340.00     -30.35  -18.69  -18.41    0.14730    77.81  RIGHT     2.26294E-02    -9.17    8.66110E-02   -45.29
   50.00   340.00     -13.07  -13.45  -10.24    0.24532    43.55  RIGHT     1.65578E-01   -19.61    1.58330E-01   -47.20
   55.00   340.00     -26.43  -14.00  -13.76    0.21126    83.61  RIGHT     3.55499E-02  -162.57    1.48702E-01   134.02
   60.00   340.00     -15.90  -18.72  -14.07    0.26378    34.41  RIGHT     1.19510E-01   165.10    8.63242E-02   133.80
   65.00   340.00     -19.49  -10.37   -9.87    0.31970    81.85  RIGHT     7.89893E-02    23.05    2.25731E-01   -45.45
   70.00   340.00     -19.62  -15.71  -14.23    0.03619   -57.49  RIGHT     7.78818E-02   -49.87    1.22052E-01   134.70
[...]
   50.00   370.00     -11.75  -14.32   -9.84    0.12463   -36.37  LEFT      1.92593E-01   -69.12    1.43259E-01    96.03
   55.00   370.00     -14.40  -13.19  -10.74    0.05105   -49.03  LEFT      1.41912E-01   108.97    1.63300E-01   -76.93
   60.00   370.00     -21.44  -19.48  -17.34    0.22729   -52.13  LEFT      6.31282E-02   111.35    7.91363E-02   -94.97
   65.00   370.00     -17.84   -9.32   -8.75    0.05844   -69.68  LEFT      9.55738E-02   -73.19    2.54945E-01    96.60
   70.00   370.00     -35.27  -13.48  -13.46    0.02833   -85.64  RIGHT     1.28454E-02    80.63    1.57772E-01   -78.88
   75.00   370.00     -43.49  -16.11  -16.10    0.02407    87.98  LEFT      4.98453E-03  -124.69    1.16620E-01   -90.37
   80.00   370.00     -18.14   -7.58   -7.22    0.05472    73.74  RIGHT     9.23209E-02   106.53    3.11195E-01    94.99
   85.00   370.00     -15.00   -9.11   -8.11    0.07569    63.35  RIGHT     1.32469E-01   -73.30    2.61207E-01   -84.05
   90.00   370.00    -999.99 -999.99 -999.99    0.00000     0.00            3.12734E-11   104.64    4.57169E-11    94.86
    0.00   380.00     -10.10  -18.74   -9.55    0.00147   -20.29  LEFT      2.32824E-01   123.23    8.61016E-02   -57.03
    5.00   380.00     -10.97  -19.45  -10.39    0.00474   -20.63  LEFT      2.10780E-01   119.42    7.93499E-02   -61.40
   10.00   380.00     -15.55  -23.61  -14.92    0.01965   -21.56  LEFT      1.24363E-01   111.98    4.91916E-02   -71.31
   15.00   380.00     -23.24  -29.48  -22.32    0.01837   -26.00  RIGHT     5.12871E-02   -38.27    2.50259E-02   144.40
   20.00   380.00      -9.21  -15.27   -8.25    0.01828   -26.44  LEFT      2.58153E-01   -61.51    1.28428E-01   115.87
   25.00   380.00      -6.61  -11.59   -5.41    0.04434   -29.35  LEFT      3.48082E-01   -67.67    1.96279E-01   106.39
   30.00   380.00     -14.77  -18.61  -13.27    0.11604   -32.38  LEFT      1.36081E-01   -77.39    8.74869E-02    88.03
   35.00   380.00      -9.72  -11.29   -7.42    0.03666   -39.83  LEFT      2.43495E-01   110.67    2.03202E-01   -73.60
   40.00   380.00      -9.25   -9.42   -6.32    0.08880   -44.41  LEFT      2.57002E-01   102.94    2.51832E-01   -87.21
   45.00   380.00     -13.23  -10.99   -8.95    0.02374   -52.31  LEFT      1.62538E-01   -72.07    2.10336E-01   105.12
   50.00   380.00     -11.30   -7.24   -5.80    0.07285   -58.08  LEFT      2.02852E-01   -82.37    3.23818E-01    88.36
   55.00   380.00     -12.51   -5.88   -5.03    0.03101   -65.03  LEFT      1.76606E-01   101.29    3.78492E-01   -83.34
   60.00   380.00     -22.49  -12.29  -11.89    0.02103   -72.86  LEFT      5.59410E-02    79.77    1.81019E-01  -104.51
   65.00   380.00     -15.87   -1.98   -1.81    0.00242   -78.57  LEFT      1.19917E-01   -90.05    5.93171E-01    89.24
   70.00   380.00     -25.39   -6.04   -5.99    0.00639   -83.86  LEFT      4.00629E-02    97.89    3.71909E-01   -85.55
   75.00   380.00     -29.89   -8.75   -8.72    0.08370    88.50  RIGHT     2.38575E-02   -26.15    2.72010E-01   -98.88
   80.00   380.00     -18.65   -0.16   -0.10    0.05493    83.97  RIGHT     8.70868E-02   115.20    7.31620E-01    87.39
   85.00   380.00     -15.87   -1.66   -1.49    0.05624    79.44  RIGHT     1.19865E-01   -74.11    6.15838E-01   -91.51
   90.00   380.00    -999.99 -196.80 -196.46    0.00000     0.00            3.10130E-11   106.00    1.07689E-10    87.22
    0.00   390.00     -10.82  -15.49   -9.55    0.00147   -30.29  LEFT      2.14336E-01   123.25    1.25223E-01   -56.95
    5.00   390.00     -11.63  -16.15  -10.32    0.00567   -30.74  LEFT      1.95229E-01   118.00    1.16094E-01   -62.74
   10.00   390.00     -16.28  -20.36  -14.85    0.02478   -32.00  LEFT      1.14373E-01   108.63    7.15143E-02   -74.53
   15.00   390.00     -22.57  -24.98  -20.60    0.01823   -37.14  RIGHT     5.54552E-02   -41.47    4.20118E-02   140.70
   20.00   390.00      -9.26  -11.34   -7.17    0.02011   -38.20  LEFT      2.56500E-01   -65.23    2.01910E-01   112.40
   25.00   390.00      -6.75   -7.68   -4.18    0.04570   -41.93  LEFT      3.42600E-01   -72.87    3.07902E-01   101.86
   30.00   390.00     -15.29  -14.74  -12.00    0.10845   -46.83  LEFT      1.28226E-01   -86.77    1.36498E-01    80.82
   35.00   390.00      -9.32   -7.05   -5.03    0.03070   -52.42  LEFT      2.54701E-01   105.58    3.30786E-01   -78.06
   40.00   390.00      -9.24   -5.25   -3.79    0.05991   -57.82  LEFT      2.57191E-01    94.39    4.07117E-01   -93.21
   45.00   390.00     -12.30   -6.58   -5.55    0.02135   -62.66  LEFT      1.80799E-01   -76.47    3.49407E-01   100.53
   50.00   390.00     -11.13   -2.92   -2.31    0.02820   -68.82  LEFT      2.06801E-01   -93.20    5.32283E-01    82.01
   55.00   390.00     -11.49   -1.45   -1.04    0.02058   -72.57  LEFT      1.98424E-01    95.36    6.30673E-01   -88.76
   60.00   390.00     -22.09   -7.87   -7.71    0.05261   -79.38  RIGHT     5.86043E-02    51.55    3.01062E-01  -112.21
   65.00   390.00     -14.65    2.48    2.57    0.01039   -82.10  RIGHT     1.37958E-01  -101.32    9.91954E-01    83.05
   70.00   390.00     -21.61   -1.51   -1.47    0.01446   -84.42  LEFT      6.18753E-02    97.25    6.26345E-01   -91.25
   75.00   390.00     -24.61   -4.26   -4.22    0.09467    89.09  RIGHT     4.38076E-02   -25.32    4.56389E-01  -105.91
   80.00   390.00     -19.06    4.36    4.38    0.04519    87.13  RIGHT     8.30805E-02   123.15    1.23142E+00    80.98
   85.00   390.00     -17.04    2.88    2.92    0.03981    84.70  RIGHT     1.04788E-01   -74.39    1.03808E+00   -97.83
   90.00   390.00    -999.99 -192.27 -192.15    0.00000     0.00            2.97509E-11   106.91    1.81470E-10    80.77
    0.00   400.00     -11.90  -13.33   -9.55    0.00147   -40.29  LEFT      1.89335E-01   123.27    1.60539E-01   -56.90
    5.00   400.00     -12.66  -13.94  -10.24    0.00607   -40.80  LEFT      1.73423E-01   116.74    1.49711E-01   -63.97
   10.00   400.00     -17.36  -18.17  -14.74    0.02678   -42.30  LEFT      1.01032E-01   105.59    9.19550E-02   -77.49
   15.00   400.00     -22.53  -21.86  -19.17    0.01819   -47.21  RIGHT     5.57047E-02   -44.00    6.01829E-02   138.09
   20.00   400.00      -9.77   -8.63   -6.15    0.01847   -48.77  LEFT      2.41948E-01   -68.36    2.76041E-01   109.50
   25.00   400.00      -7.32   -4.96   -2.97    0.03949   -52.68  LEFT      3.20995E-01   -77.24    4.20749E-01    98.07
   30.00   400.00     -16.09  -12.02  -10.59    0.08017   -58.13  LEFT      1.16863E-01   -94.94    1.86657E-01    74.86
   35.00   400.00      -9.50   -4.11   -3.01    0.02329   -61.75  LEFT      2.49637E-01   101.42    4.64207E-01   -81.78
   40.00   400.00      -9.66   -2.34   -1.60    0.03505   -66.79  LEFT      2.44963E-01    87.37    5.69341E-01   -98.17
   45.00   400.00     -12.12   -3.51   -2.95    0.01811   -69.65  LEFT      1.84619E-01   -80.17    4.97223E-01    96.65
   50.00   400.00     -11.40    0.09    0.39    0.00596   -75.09  LEFT      2.00507E-01  -101.86    7.52958E-01    76.76
   55.00   400.00     -11.26    1.63    1.85    0.01465   -77.25  LEFT      2.03920E-01    90.56    8.99424E-01   -93.33
   60.00   400.00     -21.42   -4.78   -4.68    0.07079   -82.64  RIGHT     6.33058E-02    32.29    4.29896E-01  -118.46
   65.00   400.00     -14.23    5.59    5.64    0.01286   -84.22  RIGHT     1.44821E-01  -109.45    1.41833E+00    77.86
   70.00   400.00     -19.97    1.63    1.66    0.01562   -85.33  LEFT      7.47704E-02    94.79    8.99363E-01   -96.11
   75.00   400.00     -22.43   -1.13   -1.10    0.08561    89.49  RIGHT     5.63260E-02   -27.70    6.54344E-01  -111.75
   80.00   400.00     -19.57    7.50    7.51    0.03573    88.50  RIGHT     7.83018E-02   129.40    1.76790E+00    75.57
   85.00   400.00     -18.53    6.03    6.04    0.02865    87.04  RIGHT     8.82324E-02   -74.12    1.49157E+00  -103.18
   90.00   400.00    -999.99 -189.12 -189.07    0.05532    84.91  RIGHT     2.73501E-11   107.43    2.60718E-10    75.32
    0.00   410.00     -13.44  -11.83   -9.55    0.00147   -50.29  LEFT      1.58581E-01   123.30    1.90978E-01   -56.87
    5.00   410.00     -14.16  -12.39  -10.17    0.00590   -50.82  LEFT      1.45944E-01   115.66    1.79041E-01   -65.03
   10.00   410.00     -18.90  -16.63  -14.61    0.02551   -52.40  LEFT      8.46189E-02   102.98    1.09857E-01   -80.04
   15.00   410.00     -23.18  -19.60  -18.02    0.01776   -56.49  RIGHT     5.16875E-02   -46.07    7.80278E-02   136.14
   20.00   410.00     -10.83   -6.67   -5.26    0.01502   -58.26  LEFT      2.14077E-01   -70.93    3.45940E-01   107.15
   25.00   410.00      -8.42   -3.00   -1.91    0.03062   -61.85  LEFT      2.82564E-01   -80.80    5.27360E-01    94.98
   30.00   410.00     -17.35  -10.04   -9.30    0.05202   -66.83  LEFT      1.01139E-01  -101.71    2.34674E-01    70.08
   35.00   410.00     -10.32   -1.98   -1.39    0.01676   -69.06  LEFT      2.27187E-01    98.06    5.93031E-01   -84.82
   40.00   410.00     -10.65   -0.23    0.15    0.01889   -73.27  LEFT      2.18700E-01    81.76    7.25982E-01  -102.16
   45.00   410.00     -12.69   -1.30   -1.00    0.01452   -74.94  LEFT      1.72797E-01   -83.25    6.41339E-01    93.44
   50.00   410.00     -12.26    2.27    2.42    0.00370   -79.37  RIGHT     1.81699E-01  -108.65    9.67647E-01    72.52
   55.00   410.00     -11.80    3.86    3.97    0.01057   -80.65  LEFT      1.91611E-01    86.67    1.16169E+00   -97.10
   60.00   410.00     -21.38   -2.54   -2.48    0.06772   -84.74  RIGHT     6.35515E-02    19.82    5.56384E-01  -123.46
   65.00   410.00     -14.63    7.83    7.85    0.01190   -85.74  RIGHT     1.38284E-01  -115.55    1.83507E+00    73.59
   70.00   410.00     -19.68    3.89    3.91    0.01403   -86.29  LEFT      7.73042E-02    92.12    1.16667E+00  -100.15
   75.00   410.00     -21.87    1.13    1.15    0.07062    89.72  RIGHT     6.00527E-02   -30.45    8.48320E-01  -116.52
   80.00   410.00     -20.46    9.76    9.77    0.02737    89.19  RIGHT     7.06470E-02   133.78    2.29315E+00    71.10
   85.00   410.00     -20.43    8.29    8.30    0.02059    88.26  RIGHT     7.09475E-02   -73.40    1.93567E+00  -107.61
   90.00   410.00    -999.99 -186.86 -186.84    0.04200    86.78  RIGHT     2.37603E-11   107.68    3.38325E-10    70.82
    0.00   420.00     -15.65  -10.77   -9.55    0.00147   -60.29  LEFT      1.23009E-01   123.35    2.15614E-01   -56.85
    5.00   420.00     -16.34  -11.29  -10.11    0.00519   -60.77  LEFT      1.13599E-01   114.80    2.03031E-01   -65.90
   10.00   420.00     -21.12  -15.54  -14.48    0.02139   -62.27  LEFT      6.55233E-02   100.87    1.24568E-01   -82.11
   15.00   420.00     -24.67  -17.98  -17.14    0.01696   -65.17  RIGHT     4.35153E-02   -47.86    9.39859E-02   134.69
   20.00   420.00     -12.65   -5.26   -4.53    0.01082   -66.88  LEFT      1.73657E-01   -72.96    4.06664E-01   105.32
   25.00   420.00     -10.28   -1.60   -1.04    0.02160   -69.83  LEFT      2.28161E-01   -83.59    6.20104E-01    92.59
   30.00   420.00     -19.31   -8.60   -8.24    0.03048   -73.84  LEFT      8.07048E-02  -107.06    2.76919E-01    66.43
   35.00   420.00     -11.96   -0.46   -0.16    0.01131   -75.11  LEFT      1.88044E-01    95.42    7.06699E-01   -87.19
   40.00   420.00     -12.41    1.29    1.47    0.00928   -78.34  LEFT      1.78491E-01    77.43    8.64210E-01  -105.25
   45.00   420.00     -14.17    0.28    0.43    0.01073   -79.28  LEFT      1.45835E-01   -85.73    7.69243E-01    90.91
   50.00   420.00     -13.92    3.83    3.90    0.00675   -82.63  RIGHT     1.50002E-01  -113.81    1.15791E+00    69.22
   55.00   420.00     -13.25    5.44    5.50    0.00734   -83.39  LEFT      1.62035E-01    83.60    1.39445E+00  -100.07
   60.00   420.00     -22.38   -0.93   -0.90    0.05552   -86.34  RIGHT     5.66581E-02    11.51    6.69146E-01  -127.31
   65.00   420.00     -15.99    9.42    9.44    0.00962   -86.98  RIGHT     1.18233E-01  -120.13    2.20510E+00    70.24
   70.00   420.00     -20.61    5.50    5.51    0.01113   -87.24  LEFT      6.94286E-02    89.68    1.40421E+00  -103.36
   75.00   420.00     -22.66    2.73    2.75    0.05370    89.85  RIGHT     5.48778E-02   -32.99    1.02081E+00  -120.24
   80.00   420.00     -22.05   11.37   11.37    0.01991    89.56  RIGHT     5.88412E-02   136.62    2.75977E+00    67.58
   85.00   420.00     -22.89    9.90    9.91    0.01435    88.98  RIGHT     5.33967E-02   -72.30    2.33021E+00  -111.10
   90.00   420.00    -999.99 -185.25 -185.24    0.03035    87.96  RIGHT     1.90400E-11   107.81    4.07275E-10    67.27
    0.00   430.00     -18.99  -10.07   -9.55    0.00147   -70.29  LEFT      8.36999E-02   123.43    2.33698E-01   -56.83
    5.00   430.00     -19.67  -10.57  -10.06    0.00403   -70.68  LEFT      7.74044E-02   114.21    2.20787E-01   -66.53
   10.00   430.00     -24.52  -14.81  -14.37    0.01512   -71.93  LEFT      4.42668E-02    99.31    1.35495E-01   -83.62
   15.00   430.00     -27.41  -16.89  -16.52    0.01594   -73.44  RIGHT     3.17504E-02   -49.68    1.06617E-01   133.66
   20.00   430.00     -15.67   -4.31   -4.00    0.00640   -74.88  LEFT      1.22616E-01   -74.53    4.53722E-01   104.01
   25.00   430.00     -13.35   -0.64   -0.42    0.01326   -76.99  LEFT      1.60171E-01   -85.66    6.92008E-01    90.88
   30.00   430.00     -22.50   -7.62   -7.48    0.01535   -79.81  LEFT      5.58949E-02  -111.11    3.09932E-01    63.85
   35.00   430.00     -14.86    0.57    0.69    0.00664   -80.40  LEFT      1.34627E-01    93.42    7.95648E-01   -88.89
   40.00   430.00     -15.43    2.31    2.38    0.00381   -82.61  LEFT      1.26096E-01    74.26    9.72350E-01  -107.45
   45.00   430.00     -16.95    1.34    1.41    0.00681   -83.07  LEFT      1.05866E-01   -87.67    8.69677E-01    89.08
   50.00   430.00     -16.87    4.88    4.91    0.00631   -85.34  RIGHT     1.06839E-01  -117.59    1.30711E+00    66.87
   55.00   430.00     -16.04    6.51    6.54    0.00450   -85.74  LEFT      1.17621E-01    81.26    1.57710E+00  -102.22
   60.00   430.00     -24.87    0.15    0.16    0.03911   -87.69  RIGHT     4.25426E-02     5.68    7.57893E-01  -130.06
   65.00   430.00     -18.72   10.50   10.50    0.00678   -88.06  RIGHT     8.63348E-02  -123.50    2.49546E+00    67.82
   70.00   430.00     -23.06    6.59    6.59    0.00755   -88.16  LEFT      5.24097E-02    87.58    1.59069E+00  -105.68
   75.00   430.00     -25.01    3.82    3.82    0.03616    89.92  RIGHT     4.18476E-02   -35.20    1.15625E+00  -122.91
   80.00   430.00     -24.83   12.45   12.46    0.01310    89.78  RIGHT     4.27287E-02   138.40    3.12591E+00    65.04
   85.00   430.00     -26.37   10.99   10.99    0.00922    89.43  RIGHT     3.57979E-02   -70.81    2.63977E+00  -113.64
   90.00   430.00    -999.99 -184.16 -184.16    0.01986    88.79  RIGHT     1.33606E-11   108.01    4.61375E-10    64.70
    0.00   440.00     -25.01   -9.67   -9.55    0.00147   -80.29  LEFT      4.18479E-02   123.69    2.44682E-01   -56.82
    5.00   440.00     -25.72  -10.15  -10.03    0.00255   -80.55  LEFT      3.85515E-02   113.99    2.31629E-01   -66.91
   10.00   440.00     -30.80  -14.39  -14.29    0.00752   -81.41  LEFT      2.14975E-02    98.37    1.42157E-01   -84.55
   15.00   440.00     -32.65  -16.25  -16.15    0.01491   -81.44  RIGHT     1.73585E-02   -52.76    1.14762E-01   133.02
   20.00   440.00     -21.34   -3.76   -3.68    0.00194   -82.47  LEFT      6.38799E-02   -75.92    4.83529E-01   103.22
   25.00   440.00     -19.14   -0.09   -0.04    0.00562   -83.64  LEFT      8.23102E-02   -87.23    7.37498E-01    89.85
   30.00   440.00     -28.59   -7.05   -7.02    0.00460   -85.22  LEFT      2.77267E-02  -114.53    3.30883E-01    62.30
   35.00   440.00     -20.44    1.17    1.20    0.00244   -85.25  LEFT      7.08103E-02    91.77    8.52291E-01   -89.92
   40.00   440.00     -21.23    2.90    2.92    0.00070   -86.44  LEFT      6.47083E-02    71.87    1.04112E+00  -108.77
   45.00   440.00     -22.42    1.96    1.98    0.00278   -86.55  LEFT      5.64019E-02   -89.38    9.33759E-01    87.97
   50.00   440.00     -22.62    5.49    5.50    0.00406   -87.76  RIGHT     5.51323E-02  -120.49    1.40212E+00    65.45
   55.00   440.00     -21.54    7.13    7.14    0.00185   -87.89  LEFT      6.23808E-02    79.36    1.69352E+00  -103.52
   60.00   440.00     -30.29    0.77    0.78    0.02076   -88.93  RIGHT     2.27796E-02     0.33    8.14512E-01  -131.71
   65.00   440.00     -24.25   11.12   11.12    0.00371   -89.05  RIGHT     4.57012E-02  -126.23    2.68043E+00    66.36
   70.00   440.00     -28.31    7.21    7.21    0.00360   -89.06  LEFT      2.86364E-02    85.33    1.70953E+00  -107.09
   75.00   440.00     -30.21    4.44    4.44    0.01848    89.94  RIGHT     2.29991E-02   -37.62    1.24254E+00  -124.53
   80.00   440.00     -30.15   13.08   13.08    0.00670    89.91  RIGHT     2.31618E-02   139.71    3.35911E+00    63.50
   85.00   440.00     -32.23   11.61   11.61    0.00472    89.75  RIGHT     1.82294E-02   -67.93    2.83693E+00  -115.17
   90.00   440.00    -999.99 -183.54 -183.54    0.01009    89.44  RIGHT     6.98826E-12   108.86    4.95829E-10    63.14
    0.00   450.00     -54.97   -9.55   -9.55    0.00147    89.71  LEFT      1.32910E-03   -72.76    2.48231E-01   -56.80
    5.00   450.00     -53.04  -10.02  -10.02    0.00092    89.60  LEFT      1.66018E-03   -74.54    2.35132E-01   -67.03
   10.00   450.00     -51.27  -14.26  -14.26    0.00062    89.19  RIGHT     2.03543E-03   -82.32    1.44244E-01   -84.86
   15.00   450.00     -50.66  -16.03  -16.03    0.01403   -89.30  RIGHT     2.18355E-03   -96.38    1.17665E-01   132.76
   20.00   450.00     -52.95   -3.57   -3.57    0.00253   -89.87  RIGHT     1.67833E-03  -125.24    4.93779E-01   102.96
   25.00   450.00     -54.58    0.09    0.09    0.00161    89.95  RIGHT     1.39141E-03   150.38    7.52983E-01    89.51
   30.00   450.00     -49.21   -6.87   -6.87    0.00404    89.63  RIGHT     2.57995E-03    93.70    3.37924E-01    61.78
   35.00   450.00     -51.08    1.36    1.36    0.00158   -89.90  RIGHT     2.08059E-03    48.44    8.71763E-01   -90.27
   40.00   450.00     -51.24    3.10    3.10    0.00137    89.92  RIGHT     2.04399E-03   -63.80    1.06456E+00  -109.22
   45.00   450.00     -49.95    2.16    2.16    0.00132   -89.88  RIGHT     2.37061E-03  -124.69    9.55817E-01    87.60
   50.00   450.00     -51.41    5.69    5.69    0.00106    89.95  RIGHT     2.00316E-03   114.53    1.43457E+00    64.97
   55.00   450.00     -51.43    7.33    7.33    0.00075   -89.95  RIGHT     1.99872E-03    35.51    1.73346E+00  -103.95
   60.00   450.00     -50.78    0.98    0.98    0.00168    89.89  RIGHT     2.15417E-03   -91.67    8.33829E-01  -132.26
   65.00   450.00     -53.34   11.32   11.32    0.00058   -90.00  RIGHT     1.60472E-03   159.41    2.74375E+00    65.87
   70.00   450.00     -52.40    7.42    7.42    0.00052   -89.95  RIGHT     1.78783E-03    41.80    1.75029E+00  -107.57
   75.00   450.00     -53.68    4.64    4.64    0.00081    89.95  RIGHT     1.54258E-03   -83.45    1.27204E+00  -125.07
   80.00   450.00     -52.51   13.28   13.28    0.00051   -90.00  RIGHT     1.76403E-03   153.70    3.43893E+00    62.98
   85.00   450.00     -52.93   11.82   11.82    0.00053   -89.99  RIGHT     1.68228E-03    -2.49    2.90444E+00  -115.69
   90.00   450.00    -999.99 -183.33 -183.33    0.00069    90.00  RIGHT     3.51007E-13   151.64    5.07623E-10    62.62


   AVERAGE POWER GAIN= 1.39967E+00       SOLID ANGLE USED IN AVERAGING=( 2.0000)*PI STERADIANS.








 ***** DATA CARD NO.  6   EN   0    19    37  1003  0.00000E+00  9.00000E+01  5.00000E+00  1.00000E+01  0.00000E+00  0.00000E+00

 RUN TIME =     0.125
