1



                                 *********************************************

                                    NUMERICAL ELECTROMAGNETICS CODE (NEC-2D)

                                 *********************************************




                                     - - - - COMMENTS - - - -


                                                                                                     
                                                                                                     




                                 - - - STRUCTURE SPECIFICATION - - -

                                     COORDINATES MUST BE INPUT IN
                                     METERS OR BE SCALED TO METERS
                                     BEFORE STRUCTURE INPUT IS ENDED


  WIRE                                                                               NO. OF    FIRST  LAST     TAG
  NO.        X1         Y1         Z1          X2         Y2         Z2      RADIUS   SEG.     SEG.   SEG.     NO.
     1    0.10400    0.00000    0.16400     0.10300    0.01800    0.16400    0.00240      1        1     1       1
     2    0.10300    0.01800    0.16400     0.09800    0.03500    0.16400    0.00240      1        2     2       1
     3    0.09800    0.03500    0.16400     0.09100    0.05200    0.16400    0.00240      1        3     3       1
     4    0.09100    0.05200    0.16400     0.08000    0.06600    0.16400    0.00240      1        4     4       1
     5    0.08000    0.06600    0.16400     0.06800    0.07900    0.16400    0.00240      1        5     5       1
     6    0.06800    0.07900    0.16400     0.05300    0.09000    0.16400    0.00240      1        6     6       1
     7    0.05300    0.09000    0.16400     0.03700    0.09700    0.16400    0.00240      1        7     7       1
     8    0.03700    0.09700    0.16400     0.02000    0.10200    0.16400    0.00240      1        8     8       1
     9    0.02000    0.10200    0.16400     0.00200    0.10400    0.16400    0.00240      1        9     9       1
    10    0.00200    0.10400    0.16400    -0.01600    0.10300    0.16400    0.00240      1       10    10       1
    11   -0.01600    0.10300    0.16400    -0.03300    0.09900    0.16400    0.00240      1       11    11       1
    12   -0.03300    0.09900    0.16400    -0.05000    0.09200    0.16400    0.00240      1       12    12       1
    13   -0.05000    0.09200    0.16400    -0.06500    0.08200    0.16400    0.00240      1       13    13       1
    14   -0.06500    0.08200    0.16400    -0.07800    0.07000    0.16400    0.00240      1       14    14       1
    15   -0.07800    0.07000    0.16400    -0.08900    0.05500    0.16400    0.00240      1       15    15       1
    16   -0.08900    0.05500    0.16400    -0.09700    0.03900    0.16400    0.00240      1       16    16       1
    17   -0.09700    0.03900    0.16400    -0.10200    0.02200    0.16400    0.00240      1       17    17       1
    18   -0.10200    0.02200    0.16400    -0.10400    0.00400    0.16400    0.00240      1       18    18       1
    19   -0.10400    0.00400    0.16400    -0.10300   -0.01400    0.16400    0.00240      1       19    19       1
    20   -0.10300   -0.01400    0.16400    -0.10000   -0.03100    0.16400    0.00240      1       20    20       1
    21   -0.10000   -0.03100    0.16400    -0.09300   -0.04800    0.16400    0.00240      1       21    21       1
    22   -0.09300   -0.04800    0.16400    -0.08300   -0.06300    0.16400    0.00240      1       22    22       1
    23   -0.08300   -0.06300    0.16400    -0.07100   -0.07600    0.16400    0.00240      1       23    23       1
    24   -0.07100   -0.07600    0.16400    -0.05700   -0.08700    0.16400    0.00240      1       24    24       1
    25   -0.05700   -0.08700    0.16400    -0.04100   -0.09600    0.16400    0.00240      1       25    25       1
    26   -0.04100   -0.09600    0.16400    -0.02400   -0.10100    0.16400    0.00240      1       26    26       1
    27   -0.02400   -0.10100    0.16400    -0.00600   -0.10400    0.16400    0.00240      1       27    27       1
    28   -0.00600   -0.10400    0.16400     0.01200   -0.10400    0.16400    0.00240      1       28    28       1
    29    0.01200   -0.10400    0.16400     0.02900   -0.10000    0.16400    0.00240      1       29    29       1
    30    0.02900   -0.10000    0.16400     0.04600   -0.09400    0.16400    0.00240      1       30    30       1
    31    0.04600   -0.09400    0.16400     0.06100   -0.08400    0.16400    0.00240      1       31    31       1
    32    0.06100   -0.08400    0.16400     0.07500   -0.07300    0.16400    0.00240      1       32    32       1
    33    0.07500   -0.07300    0.16400     0.08600   -0.05900    0.16400    0.00240      1       33    33       1
    34    0.08600   -0.05900    0.16400     0.09500   -0.04300    0.16400    0.00240      1       34    34       1
    35    0.09500   -0.04300    0.16400     0.10100   -0.02600    0.16400    0.00240      1       35    35       1
    36    0.10100   -0.02600    0.16400     0.10400   -0.00800    0.16400    0.00240      1       36    36     999
    37    0.10400    0.00000    0.00000     0.10300    0.01800    0.00000    0.00240      1       37    37       2
    38    0.10300    0.01800    0.00000     0.09800    0.03500    0.00000    0.00240      1       38    38       2
    39    0.09800    0.03500    0.00000     0.09100    0.05200    0.00000    0.00240      1       39    39       2
    40    0.09100    0.05200    0.00000     0.08000    0.06600    0.00000    0.00240      1       40    40       2
    41    0.08000    0.06600    0.00000     0.06800    0.07900    0.00000    0.00240      1       41    41       2
    42    0.06800    0.07900    0.00000     0.05300    0.09000    0.00000    0.00240      1       42    42       2
    43    0.05300    0.09000    0.00000     0.03700    0.09700    0.00000    0.00240      1       43    43       2
    44    0.03700    0.09700    0.00000     0.02000    0.10200    0.00000    0.00240      1       44    44       2
    45    0.02000    0.10200    0.00000     0.00200    0.10400    0.00000    0.00240      1       45    45       2
    46    0.00200    0.10400    0.00000    -0.01600    0.10300    0.00000    0.00240      1       46    46       2
    47   -0.01600    0.10300    0.00000    -0.03300    0.09900    0.00000    0.00240      1       47    47       2
    48   -0.03300    0.09900    0.00000    -0.05000    0.09200    0.00000    0.00240      1       48    48       2
    49   -0.05000    0.09200    0.00000    -0.06500    0.08200    0.00000    0.00240      1       49    49       2
    50   -0.06500    0.08200    0.00000    -0.07800    0.07000    0.00000    0.00240      1       50    50       2
    51   -0.07800    0.07000    0.00000    -0.08900    0.05500    0.00000    0.00240      1       51    51       2
    52   -0.08900    0.05500    0.00000    -0.09700    0.03900    0.00000    0.00240      1       52    52       2
    53   -0.09700    0.03900    0.00000    -0.10200    0.02200    0.00000    0.00240      1       53    53       2
    54   -0.10200    0.02200    0.00000    -0.10400    0.00400    0.00000    0.00240      1       54    54       2
    55   -0.10400    0.00400    0.00000    -0.10300   -0.01400    0.00000    0.00240      1       55    55       2
    56   -0.10300   -0.01400    0.00000    -0.10000   -0.03100    0.00000    0.00240      1       56    56       2
    57   -0.10000   -0.03100    0.00000    -0.09300   -0.04800    0.00000    0.00240      1       57    57       2
    58   -0.09300   -0.04800    0.00000    -0.08300   -0.06300    0.00000    0.00240      1       58    58       2
    59   -0.08300   -0.06300    0.00000    -0.07100   -0.07600    0.00000    0.00240      1       59    59       2
    60   -0.07100   -0.07600    0.00000    -0.05700   -0.08700    0.00000    0.00240      1       60    60       2
    61   -0.05700   -0.08700    0.00000    -0.04100   -0.09600    0.00000    0.00240      1       61    61       2
    62   -0.04100   -0.09600    0.00000    -0.02400   -0.10100    0.00000    0.00240      1       62    62       2
    63   -0.02400   -0.10100    0.00000    -0.00600   -0.10400    0.00000    0.00240      1       63    63       2
    64   -0.00600   -0.10400    0.00000     0.01200   -0.10400    0.00000    0.00240      1       64    64       2
    65    0.01200   -0.10400    0.00000     0.02900   -0.10000    0.00000    0.00240      1       65    65       2
    66    0.02900   -0.10000    0.00000     0.04600   -0.09400    0.00000    0.00240      1       66    66       2
    67    0.04600   -0.09400    0.00000     0.06100   -0.08400    0.00000    0.00240      1       67    67       2
    68    0.06100   -0.08400    0.00000     0.07500   -0.07300    0.00000    0.00240      1       68    68       2
    69    0.07500   -0.07300    0.00000     0.08600   -0.05900    0.00000    0.00240      1       69    69       2
    70    0.08600   -0.05900    0.00000     0.09500   -0.04300    0.00000    0.00240      1       70    70       2
    71    0.09500   -0.04300    0.00000     0.10100   -0.02600    0.00000    0.00240      1       71    71       2
    72    0.10100   -0.02600    0.00000     0.10400   -0.00800    0.00000    0.00240      1       72    72       2
    73    0.10400    0.00000    0.00000     0.10400    0.00000    0.16400    0.00240      4       73    76       3
    74    0.10400   -0.00800    0.00000     0.10400   -0.00800    0.16400    0.00240      4       77    80       4
      THE STRUCTURE HAS BEEN MOVED, MOVE DATA CARD IS -
        0    0   0.00000   0.00000   0.00000   0.00000   0.00000   8.00000   0.00000

   GROUND PLANE SPECIFIED.

   TOTAL SEGMENTS USED=   80     NO. SEG. IN A SYMMETRIC CELL=   80     SYMMETRY FLAG=  0


         - MULTIPLE WIRE JUNCTIONS -
 JUNCTION    SEGMENTS  (- FOR END 1, + FOR END 2)
  NONE




                                 - - - - SEGMENTATION DATA - - - -

                                        COORDINATES IN METERS

                         I+ AND I- INDICATE THE SEGMENTS BEFORE AND AFTER I


  SEG.   COORDINATES OF SEG. CENTER     SEG.     ORIENTATION ANGLES    WIRE    CONNECTION DATA   TAG
  NO.       X         Y         Z       LENGTH     ALPHA     BETA      RADIUS    I-   I    I+    NO.
     1   0.10350   0.00900   8.16400   0.01803    0.00000  93.17983   0.00240    76    1    2      1
     2   0.10050   0.02650   8.16400   0.01772    0.00000 106.38954   0.00240     1    2    3      1
     3   0.09450   0.04350   8.16400   0.01838    0.00000 112.38014   0.00240     2    3    4      1
     4   0.08550   0.05900   8.16400   0.01780    0.00000 128.15723   0.00240     3    4    5      1
     5   0.07400   0.07250   8.16400   0.01769    0.00000 132.70939   0.00240     4    5    6      1
     6   0.06050   0.08450   8.16400   0.01860    0.00000 143.74616   0.00240     5    6    7      1
     7   0.04500   0.09350   8.16400   0.01746    0.00000 156.37062   0.00240     6    7    8      1
     8   0.02850   0.09950   8.16400   0.01772    0.00000 163.61046   0.00240     7    8    9      1
     9   0.01100   0.10300   8.16400   0.01811    0.00000 173.65981   0.00240     8    9   10      1
    10  -0.00700   0.10350   8.16400   0.01803    0.00000-176.82017   0.00240     9   10   11      1
    11  -0.02450   0.10100   8.16400   0.01746    0.00000-166.75948   0.00240    10   11   12      1
    12  -0.04150   0.09550   8.16400   0.01838    0.00000-157.61986   0.00240    11   12   13      1
    13  -0.05750   0.08700   8.16400   0.01803    0.00000-146.30993   0.00240    12   13   14      1
    14  -0.07150   0.07600   8.16400   0.01769    0.00000-137.29061   0.00240    13   14   15      1
    15  -0.08350   0.06250   8.16400   0.01860    0.00000-126.25384   0.00240    14   15   16      1
    16  -0.09300   0.04700   8.16400   0.01789    0.00000-116.56505   0.00240    15   16   17      1
    17  -0.09950   0.03050   8.16400   0.01772    0.00000-106.38954   0.00240    16   17   18      1
    18  -0.10300   0.01300   8.16400   0.01811    0.00000 -96.34019   0.00240    17   18   19      1
    19  -0.10350  -0.00500   8.16400   0.01803    0.00000 -86.82017   0.00240    18   19   20      1
    20  -0.10150  -0.02250   8.16400   0.01726    0.00000 -79.99202   0.00240    19   20   21      1
    21  -0.09650  -0.03950   8.16400   0.01838    0.00000 -67.61986   0.00240    20   21   22      1
    22  -0.08800  -0.05550   8.16400   0.01803    0.00000 -56.30993   0.00240    21   22   23      1
    23  -0.07700  -0.06950   8.16400   0.01769    0.00000 -47.29061   0.00240    22   23   24      1
    24  -0.06400  -0.08150   8.16400   0.01780    0.00000 -38.15723   0.00240    23   24   25      1
    25  -0.04900  -0.09150   8.16400   0.01836    0.00000 -29.35775   0.00240    24   25   26      1
    26  -0.03250  -0.09850   8.16400   0.01772    0.00000 -16.38954   0.00240    25   26   27      1
    27  -0.01500  -0.10250   8.16400   0.01825    0.00000  -9.46232   0.00240    26   27   28      1
    28   0.00300  -0.10400   8.16400   0.01800    0.00000   0.00000   0.00240    27   28   29      1
    29   0.02050  -0.10200   8.16400   0.01746    0.00000  13.24052   0.00240    28   29   30      1
    30   0.03750  -0.09700   8.16400   0.01803    0.00000  19.44003   0.00240    29   30   31      1
    31   0.05350  -0.08900   8.16400   0.01803    0.00000  33.69007   0.00240    30   31   32      1
    32   0.06800  -0.07850   8.16400   0.01780    0.00000  38.15723   0.00240    31   32   33      1
    33   0.08050  -0.06600   8.16400   0.01780    0.00000  51.84277   0.00240    32   33   34      1
    34   0.09050  -0.05100   8.16400   0.01836    0.00000  60.64225   0.00240    33   34   35      1
    35   0.09800  -0.03450   8.16400   0.01803    0.00000  70.55997   0.00240    34   35   36      1
    36   0.10250  -0.01700   8.16400   0.01825    0.00000  80.53768   0.00240    35   36  -80    999
    37   0.10350   0.00900   8.00000   0.01803    0.00000  93.17983   0.00240   -73   37   38      2
    38   0.10050   0.02650   8.00000   0.01772    0.00000 106.38954   0.00240    37   38   39      2
    39   0.09450   0.04350   8.00000   0.01838    0.00000 112.38014   0.00240    38   39   40      2
    40   0.08550   0.05900   8.00000   0.01780    0.00000 128.15723   0.00240    39   40   41      2
    41   0.07400   0.07250   8.00000   0.01769    0.00000 132.70939   0.00240    40   41   42      2
    42   0.06050   0.08450   8.00000   0.01860    0.00000 143.74616   0.00240    41   42   43      2
    43   0.04500   0.09350   8.00000   0.01746    0.00000 156.37062   0.00240    42   43   44      2
    44   0.02850   0.09950   8.00000   0.01772    0.00000 163.61046   0.00240    43   44   45      2
    45   0.01100   0.10300   8.00000   0.01811    0.00000 173.65981   0.00240    44   45   46      2
    46  -0.00700   0.10350   8.00000   0.01803    0.00000-176.82017   0.00240    45   46   47      2
    47  -0.02450   0.10100   8.00000   0.01746    0.00000-166.75948   0.00240    46   47   48      2
    48  -0.04150   0.09550   8.00000   0.01838    0.00000-157.61986   0.00240    47   48   49      2
    49  -0.05750   0.08700   8.00000   0.01803    0.00000-146.30993   0.00240    48   49   50      2
    50  -0.07150   0.07600   8.00000   0.01769    0.00000-137.29061   0.00240    49   50   51      2
    51  -0.08350   0.06250   8.00000   0.01860    0.00000-126.25384   0.00240    50   51   52      2
    52  -0.09300   0.04700   8.00000   0.01789    0.00000-116.56505   0.00240    51   52   53      2
    53  -0.09950   0.03050   8.00000   0.01772    0.00000-106.38954   0.00240    52   53   54      2
    54  -0.10300   0.01300   8.00000   0.01811    0.00000 -96.34019   0.00240    53   54   55      2
    55  -0.10350  -0.00500   8.00000   0.01803    0.00000 -86.82017   0.00240    54   55   56      2
    56  -0.10150  -0.02250   8.00000   0.01726    0.00000 -79.99202   0.00240    55   56   57      2
    57  -0.09650  -0.03950   8.00000   0.01838    0.00000 -67.61986   0.00240    56   57   58      2
    58  -0.08800  -0.05550   8.00000   0.01803    0.00000 -56.30993   0.00240    57   58   59      2
    59  -0.07700  -0.06950   8.00000   0.01769    0.00000 -47.29061   0.00240    58   59   60      2
    60  -0.06400  -0.08150   8.00000   0.01780    0.00000 -38.15723   0.00240    59   60   61      2
    61  -0.04900  -0.09150   8.00000   0.01836    0.00000 -29.35775   0.00240    60   61   62      2
    62  -0.03250  -0.09850   8.00000   0.01772    0.00000 -16.38954   0.00240    61   62   63      2
    63  -0.01500  -0.10250   8.00000   0.01825    0.00000  -9.46232   0.00240    62   63   64      2
    64   0.00300  -0.10400   8.00000   0.01800    0.00000   0.00000   0.00240    63   64   65      2
    65   0.02050  -0.10200   8.00000   0.01746    0.00000  13.24052   0.00240    64   65   66      2
    66   0.03750  -0.09700   8.00000   0.01803    0.00000  19.44003   0.00240    65   66   67      2
    67   0.05350  -0.08900   8.00000   0.01803    0.00000  33.69007   0.00240    66   67   68      2
    68   0.06800  -0.07850   8.00000   0.01780    0.00000  38.15723   0.00240    67   68   69      2
    69   0.08050  -0.06600   8.00000   0.01780    0.00000  51.84277   0.00240    68   69   70      2
    70   0.09050  -0.05100   8.00000   0.01836    0.00000  60.64225   0.00240    69   70   71      2
    71   0.09800  -0.03450   8.00000   0.01803    0.00000  70.55997   0.00240    70   71   72      2
    72   0.10250  -0.01700   8.00000   0.01825    0.00000  80.53768   0.00240    71   72   77      2
    73   0.10400   0.00000   8.02050   0.04100   90.00000   0.00000   0.00240   -37   73   74      3
    74   0.10400   0.00000   8.06150   0.04100   90.00000   0.00000   0.00240    73   74   75      3
    75   0.10400   0.00000   8.10250   0.04100   90.00000   0.00000   0.00240    74   75   76      3
    76   0.10400   0.00000   8.14350   0.04100   90.00000   0.00000   0.00240    75   76    1      3
    77   0.10400  -0.00800   8.02050   0.04100   90.00000   0.00000   0.00240    72   77   78      4
    78   0.10400  -0.00800   8.06150   0.04100   90.00000   0.00000   0.00240    77   78   79      4
    79   0.10400  -0.00800   8.10250   0.04100   90.00000   0.00000   0.00240    78   79   80      4
    80   0.10400  -0.00800   8.14350   0.04100   90.00000   0.00000   0.00240    79   80  -36      4






 ***** DATA CARD NO.  1   GN   2     0     0     0  1.10000E+01  1.00000E-02  0.00000E+00  0.00000E+00  0.00000E+00  0.00000E+00
 ***** DATA CARD NO.  2   EX   0   999     1     0  1.00000E+00  0.00000E+00  0.00000E+00  0.00000E+00  0.00000E+00  0.00000E+00
 ***** DATA CARD NO.  3   FR   0     1     0     0  1.44200E+02  0.00000E+00  0.00000E+00  0.00000E+00  0.00000E+00  0.00000E+00
 ***** DATA CARD NO.  4   RP   0    19    37  1003  0.00000E+00  0.00000E+00  5.00000E+00  1.00000E+01  0.00000E+00  0.00000E+00




                                 - - - - - - FREQUENCY - - - - - -

                                    FREQUENCY= 1.4420E+02 MHZ
                                    WAVELENGTH= 2.0791E+00 METERS




                    APPROXIMATE INTEGRATION EMPLOYED FOR SEGMENTS MORE THAN   1.000 WAVELENGTHS APART



                               - - - STRUCTURE IMPEDANCE LOADING - - -

                                   THIS STRUCTURE IS NOT LOADED



                                  - - - ANTENNA ENVIRONMENT - - -

                                        FINITE GROUND.  SOMMERFELD SOLUTION
                                        RELATIVE DIELECTRIC CONST.= 11.000
                                        CONDUCTIVITY= 1.000E-02 MHOS/METER
                                        COMPLEX DIELECTRIC CONSTANT= 1.10000E+01-1.24660E+00



                                - - - MATRIX TIMING - - -

                        FILL=    0.016 SEC.,  FACTOR=    0.000 SEC.



                                          - - - ANTENNA INPUT PARAMETERS - - -

   TAG   SEG.    VOLTAGE (VOLTS)         CURRENT (AMPS)         IMPEDANCE (OHMS)        ADMITTANCE (MHOS)      POWER
   NO.   NO.    REAL        IMAG.       REAL        IMAG.       REAL        IMAG.       REAL        IMAG.     (WATTS)
   999    36 1.00000E+00 0.00000E+00 2.72123E-02 1.89238E-02 2.47696E+01-1.72250E+01 2.72123E-02 1.89238E-02 1.36062E-02



                             - - - CURRENTS AND LOCATION - - -

                                 DISTANCES IN WAVELENGTHS


  SEG.  TAG    COORD. OF SEG. CENTER     SEG.            - - - CURRENT (AMPS) - - -
  NO.   NO.     X        Y        Z      LENGTH     REAL        IMAG.       MAG.        PHASE
     1    1   0.0498   0.0043   3.9268  0.00867   2.6994E-02  1.3831E-02  3.0331E-02   27.130
     2    1   0.0483   0.0127   3.9268  0.00852   2.9963E-02  1.5677E-02  3.3816E-02   27.619
     3    1   0.0455   0.0209   3.9268  0.00884   3.2384E-02  1.7187E-02  3.6662E-02   27.957
     4    1   0.0411   0.0284   3.9268  0.00856   3.4526E-02  1.8530E-02  3.9184E-02   28.223
     5    1   0.0356   0.0349   3.9268  0.00851   3.6424E-02  1.9727E-02  4.1423E-02   28.440
     6    1   0.0291   0.0406   3.9268  0.00895   3.8188E-02  2.0847E-02  4.3507E-02   28.630
     7    1   0.0216   0.0450   3.9268  0.00840   3.9783E-02  2.1868E-02  4.5397E-02   28.797
     8    1   0.0137   0.0479   3.9268  0.00852   4.1199E-02  2.2785E-02  4.7080E-02   28.944
     9    1   0.0053   0.0495   3.9268  0.00871   4.2506E-02  2.3642E-02  4.8638E-02   29.083
    10    1  -0.0034   0.0498   3.9268  0.00867   4.3689E-02  2.4431E-02  5.0056E-02   29.214
    11    1  -0.0118   0.0486   3.9268  0.00840   4.4723E-02  2.5135E-02  5.1302E-02   29.337
    12    1  -0.0200   0.0459   3.9268  0.00884   4.5637E-02  2.5777E-02  5.2414E-02   29.459
    13    1  -0.0277   0.0418   3.9268  0.00867   4.6434E-02  2.6358E-02  5.3394E-02   29.581
    14    1  -0.0344   0.0366   3.9268  0.00851   4.7088E-02  2.6859E-02  5.4209E-02   29.701
    15    1  -0.0402   0.0301   3.9268  0.00895   4.7620E-02  2.7299E-02  5.4890E-02   29.824
    16    1  -0.0447   0.0226   3.9268  0.00860   4.8023E-02  2.7672E-02  5.5425E-02   29.952
    17    1  -0.0479   0.0147   3.9268  0.00852   4.8286E-02  2.7968E-02  5.5801E-02   30.080
    18    1  -0.0495   0.0063   3.9268  0.00871   4.8423E-02  2.8198E-02  5.6035E-02   30.213
    19    1  -0.0498  -0.0024   3.9268  0.00867   4.8430E-02  2.8361E-02  5.6123E-02   30.354
    20    1  -0.0488  -0.0108   3.9268  0.00830   4.8310E-02  2.8453E-02  5.6066E-02   30.497
    21    1  -0.0464  -0.0190   3.9268  0.00884   4.8062E-02  2.8479E-02  5.5865E-02   30.649
    22    1  -0.0423  -0.0267   3.9268  0.00867   4.7675E-02  2.8433E-02  5.5510E-02   30.811
    23    1  -0.0370  -0.0334   3.9268  0.00851   4.7167E-02  2.8317E-02  5.5015E-02   30.978
    24    1  -0.0308  -0.0392   3.9268  0.00856   4.6536E-02  2.8131E-02  5.4378E-02   31.153
    25    1  -0.0236  -0.0440   3.9268  0.00883   4.5763E-02  2.7867E-02  5.3580E-02   31.340
    26    1  -0.0156  -0.0474   3.9268  0.00852   4.4860E-02  2.7530E-02  5.2634E-02   31.536
    27    1  -0.0072  -0.0493   3.9268  0.00878   4.3830E-02  2.7115E-02  5.1540E-02   31.743
    28    1   0.0014  -0.0500   3.9268  0.00866   4.2659E-02  2.6618E-02  5.0282E-02   31.963
    29    1   0.0099  -0.0491   3.9268  0.00840   4.1380E-02  2.6052E-02  4.8898E-02   32.193
    30    1   0.0180  -0.0467   3.9268  0.00867   3.9966E-02  2.5401E-02  4.7355E-02   32.439
    31    1   0.0257  -0.0428   3.9268  0.00867   3.8385E-02  2.4650E-02  4.5618E-02   32.708
    32    1   0.0327  -0.0378   3.9268  0.00856   3.6657E-02  2.3805E-02  4.3709E-02   33.000
    33    1   0.0387  -0.0317   3.9268  0.00856   3.4769E-02  2.2860E-02  4.1611E-02   33.324
    34    1   0.0435  -0.0245   3.9268  0.00883   3.2641E-02  2.1772E-02  3.9235E-02   33.704
    35    1   0.0471  -0.0166   3.9268  0.00867   3.0216E-02  2.0520E-02  3.6525E-02   34.182
    36  999   0.0493  -0.0082   3.9268  0.00878   2.7212E-02  1.8924E-02  3.3145E-02   34.815
    37    2   0.0498   0.0043   3.8479  0.00867   2.7196E-02  1.9878E-02  3.3687E-02   36.164
    38    2   0.0483   0.0127   3.8479  0.00852   3.0159E-02  2.1665E-02  3.7134E-02   35.692
    39    2   0.0455   0.0209   3.8479  0.00884   3.2572E-02  2.3087E-02  3.9924E-02   35.329
    40    2   0.0411   0.0284   3.8479  0.00856   3.4705E-02  2.4318E-02  4.2377E-02   35.019
    41    2   0.0356   0.0349   3.8479  0.00851   3.6594E-02  2.5386E-02  4.4537E-02   34.750
    42    2   0.0291   0.0406   3.8479  0.00895   3.8347E-02  2.6355E-02  4.6531E-02   34.500
    43    2   0.0216   0.0450   3.8479  0.00840   3.9932E-02  2.7210E-02  4.8321E-02   34.270
    44    2   0.0137   0.0479   3.8479  0.00852   4.1338E-02  2.7947E-02  4.9899E-02   34.061
    45    2   0.0053   0.0495   3.8479  0.00871   4.2633E-02  2.8607E-02  5.1341E-02   33.861
    46    2  -0.0034   0.0498   3.8479  0.00867   4.3805E-02  2.9182E-02  5.2635E-02   33.671
    47    2  -0.0118   0.0486   3.8479  0.00840   4.4826E-02  2.9662E-02  5.3751E-02   33.494
    48    2  -0.0200   0.0459   3.8479  0.00884   4.5728E-02  3.0064E-02  5.4726E-02   33.324
    49    2  -0.0277   0.0418   3.8479  0.00867   4.6512E-02  3.0389E-02  5.5560E-02   33.159
    50    2  -0.0344   0.0366   3.8479  0.00851   4.7152E-02  3.0628E-02  5.6226E-02   33.006
    51    2  -0.0402   0.0301   3.8479  0.00895   4.7671E-02  3.0790E-02  5.6750E-02   32.858
    52    2  -0.0447   0.0226   3.8479  0.00860   4.8059E-02  3.0874E-02  5.7122E-02   32.717
    53    2  -0.0479   0.0147   3.8479  0.00852   4.8309E-02  3.0878E-02  5.7334E-02   32.586
    54    2  -0.0495   0.0063   3.8479  0.00871   4.8432E-02  3.0808E-02  5.7400E-02   32.461
    55    2  -0.0498  -0.0024   3.8479  0.00867   4.8424E-02  3.0660E-02  5.7314E-02   32.340
    56    2  -0.0488  -0.0108   3.8479  0.00830   4.8291E-02  3.0443E-02  5.7085E-02   32.228
    57    2  -0.0464  -0.0190   3.8479  0.00884   4.8028E-02  3.0150E-02  5.6707E-02   32.119
    58    2  -0.0423  -0.0267   3.8479  0.00867   4.7628E-02  2.9774E-02  5.6169E-02   32.012
    59    2  -0.0370  -0.0334   3.8479  0.00851   4.7106E-02  2.9332E-02  5.5492E-02   31.910
    60    2  -0.0308  -0.0392   3.8479  0.00856   4.6461E-02  2.8819E-02  5.4673E-02   31.811
    61    2  -0.0236  -0.0440   3.8479  0.00883   4.5674E-02  2.8221E-02  5.3689E-02   31.711
    62    2  -0.0156  -0.0474   3.8479  0.00852   4.4758E-02  2.7548E-02  5.2557E-02   31.612
    63    2  -0.0072  -0.0493   3.8479  0.00878   4.3715E-02  2.6801E-02  5.1277E-02   31.512
    64    2   0.0014  -0.0500   3.8479  0.00866   4.2531E-02  2.5969E-02  4.9833E-02   31.408
    65    2   0.0099  -0.0491   3.8479  0.00840   4.1241E-02  2.5076E-02  4.8266E-02   31.302
    66    2   0.0180  -0.0467   3.8479  0.00867   3.9815E-02  2.4102E-02  4.6542E-02   31.188
    67    2   0.0257  -0.0428   3.8479  0.00867   3.8223E-02  2.3024E-02  4.4622E-02   31.063
    68    2   0.0327  -0.0378   3.8479  0.00856   3.6485E-02  2.1858E-02  4.2531E-02   30.926
    69    2   0.0387  -0.0317   3.8479  0.00856   3.4587E-02  2.0595E-02  4.0254E-02   30.772
    70    2   0.0435  -0.0245   3.8479  0.00883   3.2449E-02  1.9183E-02  3.7695E-02   30.590
    71    2   0.0471  -0.0166   3.8479  0.00867   3.0016E-02  1.7588E-02  3.4790E-02   30.369
    72    2   0.0493  -0.0082   3.8479  0.00878   2.7005E-02  1.5639E-02  3.1207E-02   30.075
    73    3   0.0500   0.0000   3.8578  0.01972  -1.9312E-02 -1.4999E-02  2.4453E-02 -142.163
    74    3   0.0500   0.0000   3.8775  0.01972  -6.6303E-03 -7.1193E-03  9.7286E-03 -132.963
    75    3   0.0500   0.0000   3.8972  0.01972   6.4156E-03  1.0064E-03  6.4941E-03    8.915
    76    3   0.0500   0.0000   3.9169  0.01972   1.9102E-02  8.9189E-03  2.1081E-02   25.029
    77    4   0.0500  -0.0038   3.8578  0.01972   1.9095E-02  1.0607E-02  2.1843E-02   29.051
    78    4   0.0500  -0.0038   3.8775  0.01972   6.4123E-03  2.5547E-03  6.9025E-03   21.723
    79    4   0.0500  -0.0038   3.8972  0.01972  -6.6312E-03 -5.7337E-03  8.7664E-03 -139.151
    80    4   0.0500  -0.0038   3.9169  0.01972  -1.9309E-02 -1.3832E-02  2.3752E-02 -144.383



                                        - - - POWER BUDGET - - -

                                           INPUT POWER   = 1.3606E-02 WATTS
                                           RADIATED POWER= 1.3606E-02 WATTS
                                           STRUCTURE LOSS= 0.0000E+00 WATTS
                                           NETWORK LOSS  = 0.0000E+00 WATTS
                                           EFFICIENCY    = 100.00 PERCENT



                                                - - - RADIATION PATTERNS - - -

  - - ANGLES - -           - POWER GAINS -       - - - POLARIZATION - - -    - - - E(THETA) - - -    - - - E(PHI) - - -
  THETA     PHI        VERT.   HOR.    TOTAL      AXIAL     TILT   SENSE     MAGNITUDE    PHASE      MAGNITUDE    PHASE 
 DEGREES  DEGREES       DB      DB      DB        RATIO     DEG.              VOLTS/M    DEGREES      VOLTS/M    DEGREES
    0.00     0.00     -25.40   -2.54   -2.52    0.00966    85.92  RIGHT     4.85240E-02    57.08    6.74227E-01    49.32
    5.00     0.00     -25.05   -1.73   -1.71    0.00710    86.12  RIGHT     5.04841E-02    45.64    7.39983E-01    39.65
   10.00     0.00     -25.10    0.05    0.06    0.00246    86.84  RIGHT     5.01948E-02    28.65    9.08562E-01    26.10
   15.00     0.00     -26.83    1.39    1.40    0.00628    87.81  LEFT      4.11654E-02     2.34    1.06038E+00    11.66
   20.00     0.00     -29.57    0.30    0.30    0.02736    89.04  LEFT      3.00187E-02   -63.81    9.34907E-01    -5.35
   25.00     0.00     -24.28   -7.79   -7.69    0.14099    87.10  LEFT      5.51899E-02  -129.56    3.68443E-01   -58.89
   30.00     0.00     -23.06    0.25    0.27    0.00997    86.13  RIGHT     6.35020E-02  -161.04    9.29304E-01  -169.47
   35.00     0.00     -29.70    2.50    2.50    0.02013    89.20  LEFT      2.95497E-02   111.92    1.20405E+00   167.05
   40.00     0.00     -21.79   -7.83   -7.66    0.07578    79.49  LEFT      7.35125E-02    28.70    3.66793E-01    51.72
   45.00     0.00     -27.35    4.14    4.14    0.00941    88.57  LEFT      3.87727E-02   -33.29    1.45437E+00   -12.59
   50.00     0.00     -21.42   -9.35   -9.09    0.18375    80.42  LEFT      7.67344E-02  -153.42    3.07747E-01  -104.20
   55.00     0.00     -26.89    5.01    5.01    0.01698    88.92  LEFT      4.08646E-02   120.09    1.60772E+00   162.03
   60.00     0.00     -21.27   -3.14   -3.07    0.01297    82.97  RIGHT     7.80516E-02    11.38    6.29301E-01     5.28
   65.00     0.00     -23.93    3.87    3.88    0.04070    89.90  LEFT      5.74380E-02  -112.98    1.40998E+00   -25.49
   70.00     0.00     -22.80    5.15    5.16    0.01113    87.80  LEFT      6.54282E-02   146.80    1.63409E+00   162.97
   75.00     0.00     -23.12  -14.04  -13.53    0.33446    83.82  LEFT      6.30585E-02    22.20    1.79478E-01    96.32
   80.00     0.00     -21.12    5.99    5.99    0.04000    88.93  LEFT      7.93766E-02   -88.31    1.79912E+00   -23.21
   85.00     0.00     -19.95    5.83    5.84    0.03426    87.80  LEFT      9.08258E-02   117.29    1.76650E+00   159.15
   90.00     0.00    -999.99 -190.56 -190.54    0.05659    88.12  LEFT      1.75069E-11   -82.63    2.67732E-10   -22.60
    0.00    10.00     -14.79   -2.78   -2.52    0.00966    75.92  RIGHT     1.64555E-01    51.57    6.55635E-01    49.22
    5.00    10.00     -14.18   -1.96   -1.71    0.02801    76.33  RIGHT     1.76478E-01    46.33    7.20834E-01    39.37
   10.00    10.00     -13.15   -0.15    0.06    0.04193    77.60  RIGHT     1.98782E-01    37.07    8.87847E-01    25.75
   15.00    10.00     -13.03    1.22    1.38    0.04693    79.34  RIGHT     2.01575E-01    25.84    1.03902E+00    11.33
   20.00    10.00     -16.05    0.13    0.24    0.03306    81.38  RIGHT     1.42294E-01     7.01    9.17294E-01    -5.58
   25.00    10.00     -21.91   -8.05   -7.87    0.07145    79.25  LEFT      7.25182E-02   -80.36    3.57519E-01   -58.96
   30.00    10.00     -14.59    0.11    0.25    0.08656    80.77  RIGHT     1.68367E-01  -141.41    9.14636E-01  -170.26
   35.00    10.00     -16.93    2.37    2.43    0.04370    84.34  RIGHT     1.28605E-01  -169.42    1.18720E+00   166.54
   40.00    10.00     -19.36   -8.02   -7.71    0.03417    74.96  RIGHT     9.71762E-02    58.35    3.58677E-01    50.58
   45.00    10.00     -16.67    4.04    4.08    0.04703    85.47  RIGHT     1.32532E-01    17.68    1.43864E+00   -13.23
   50.00    10.00     -20.80   -9.55   -9.24    0.06966    75.15  LEFT      8.24135E-02  -120.87    3.00670E-01  -105.09
   55.00    10.00     -19.61    4.93    4.95    0.02334    86.88  RIGHT     9.44886E-02  -175.34    1.59345E+00   161.41
   60.00    10.00     -19.57   -3.21   -3.11    0.08540    82.84  RIGHT     9.48555E-02    39.16    6.24259E-01     4.35
   65.00    10.00     -24.31    3.80    3.81    0.02121    88.10  LEFT      5.50129E-02   -58.73    1.39867E+00   -26.05
   70.00    10.00     -21.65    5.09    5.10    0.01286    87.47  RIGHT     7.46862E-02   178.57    1.62339E+00   162.31
   75.00    10.00     -23.36  -14.19  -13.69    0.23192    75.41  LEFT      6.13763E-02    50.56    1.76356E-01    95.71
   80.00    10.00     -20.72    5.93    5.94    0.03693    88.38  LEFT      8.31277E-02   -76.44    1.78769E+00   -23.81
   85.00    10.00     -20.79    5.77    5.78    0.03006    87.93  LEFT      8.24960E-02   118.68    1.75603E+00   158.53
   90.00    10.00    -999.99 -190.61 -190.59    0.05899    87.88  LEFT      1.85250E-11   -81.25    2.66112E-10   -23.20
    0.00    20.00     -10.30   -3.31   -2.52    0.00966    65.92  RIGHT     2.75849E-01    50.60    6.17125E-01    49.11
    5.00    20.00      -9.65   -2.46   -1.70    0.04833    66.52  RIGHT     2.97203E-01    46.39    6.80223E-01    38.84
   10.00    20.00      -8.43   -0.61    0.05    0.08064    68.28  RIGHT     3.42071E-01    38.20    8.41968E-01    24.92
   15.00    20.00      -8.00    0.80    1.34    0.10012    70.75  RIGHT     3.59572E-01    28.34    9.90268E-01    10.34
   20.00    20.00     -10.45   -0.25    0.15    0.09487    73.60  RIGHT     2.71246E-01    12.87    8.77574E-01    -6.59
   25.00    20.00     -17.97   -8.52   -8.05    0.00116    71.40  RIGHT     1.14060E-01   -59.70    3.38853E-01   -59.92
   30.00    20.00     -10.39   -0.20    0.20    0.16540    75.32  RIGHT     2.73216E-01  -137.27    8.82680E-01  -172.02
   35.00    20.00     -11.21    2.10    2.30    0.11058    79.49  RIGHT     2.48417E-01  -163.00    1.15016E+00   165.04
   40.00    20.00     -16.63   -8.35   -7.75    0.14422    70.30  RIGHT     1.33148E-01    73.28    3.45437E-01    48.39
   45.00    20.00     -11.57    3.83    3.95    0.10595    82.44  RIGHT     2.38298E-01    24.54    1.40370E+00   -14.88
   50.00    20.00     -18.57   -9.86   -9.31    0.04343    69.97  RIGHT     1.06494E-01   -99.34    2.90164E-01  -107.04
   55.00    20.00     -14.40    4.76    4.81    0.06524    84.92  RIGHT     1.72133E-01  -163.58    1.56199E+00   159.79
   60.00    20.00     -17.23   -3.36   -3.19    0.15883    82.82  RIGHT     1.24299E-01    55.15    6.13261E-01     2.43
   65.00    20.00     -20.26    3.65    3.67    0.00066    86.35  LEFT      8.76684E-02   -28.18    1.37467E+00   -27.58
   70.00    20.00     -19.25    4.96    4.98    0.03716    87.19  RIGHT     9.84838E-02  -162.11    1.59904E+00   160.68
   75.00    20.00     -21.88  -14.41  -13.70    0.12844    68.02  LEFT      7.27035E-02    73.50    1.71878E-01    94.12
   80.00    20.00     -20.07    5.81    5.82    0.03362    87.82  LEFT      8.95870E-02   -66.83    1.76255E+00   -25.35
   85.00    20.00     -21.68    5.66    5.67    0.02600    88.04  LEFT      7.44704E-02   119.70    1.73243E+00   156.97
   90.00    20.00    -999.99 -190.73 -190.71    0.06138    87.60  LEFT      1.95106E-11   -80.57    2.62518E-10   -24.74
    0.00    30.00      -7.55   -4.15   -2.52    0.00966    55.92  RIGHT     3.78795E-01    50.18    5.59867E-01    48.99
    5.00    30.00      -6.88   -3.28   -1.70    0.06747    56.68  RIGHT     4.08987E-01    46.36    6.19466E-01    37.96
   10.00    30.00      -5.58   -1.36    0.04    0.11784    58.82  RIGHT     4.75149E-01    38.58    7.72604E-01    23.49
   15.00    30.00      -5.02    0.12    1.28    0.15297    61.92  RIGHT     5.06855E-01    29.22    9.16143E-01     8.55
   20.00    30.00      -7.24   -0.87    0.03    0.15877    65.57  RIGHT     3.92358E-01    14.85    8.17516E-01    -8.54
   25.00    30.00     -15.13   -9.20   -8.21    0.07714    63.47  RIGHT     1.58146E-01   -50.96    3.13244E-01   -61.95
   30.00    30.00      -7.73   -0.68    0.11    0.24872    69.69  RIGHT     3.70976E-01  -135.72    8.35563E-01  -174.89
   35.00    30.00      -7.96    1.67    2.12    0.18319    74.65  RIGHT     3.61057E-01  -160.97    1.09532E+00   162.43
   40.00    30.00     -14.48   -8.80   -7.76    0.25560    65.45  RIGHT     1.70557E-01    80.89    3.28061E-01    45.00
   45.00    30.00      -8.54    3.51    3.77    0.16946    79.58  RIGHT     3.37947E-01    26.84    1.35222E+00   -17.61
   50.00    30.00     -16.41  -10.27   -9.32    0.15504    64.84  RIGHT     1.36603E-01   -87.70    2.76951E-01  -110.14
   55.00    30.00     -11.27    4.50    4.61    0.10999    83.15  RIGHT     2.46871E-01  -159.63    1.51591E+00   157.13
   60.00    30.00     -15.22   -3.59   -3.30    0.23302    83.13  RIGHT     1.56650E-01    63.75    5.97368E-01    -0.51
   65.00    30.00     -16.99    3.43    3.47    0.02204    84.70  RIGHT     1.27669E-01   -16.63    1.33993E+00   -30.13
   70.00    30.00     -17.08    4.76    4.79    0.06176    87.01  RIGHT     1.26426E-01  -151.95    1.56322E+00   158.08
   75.00    30.00     -20.00  -14.70  -13.57    0.02987    61.53  LEFT      9.03174E-02    87.42    1.66334E-01    91.50
   80.00    30.00     -19.35    5.62    5.64    0.02968    87.25  LEFT      9.73641E-02   -59.67    1.72589E+00   -27.85
   85.00    30.00     -22.60    5.48    5.49    0.02216    88.13  LEFT      6.69330E-02   120.20    1.69783E+00   154.45
   90.00    30.00    -999.99 -190.91 -190.88    0.06350    87.27  LEFT      2.04236E-11   -80.53    2.57266E-10   -27.24
    0.00    40.00      -5.67   -5.39   -2.52    0.00966    45.92  RIGHT     4.70243E-01    49.93    4.85600E-01    48.83
    5.00    40.00      -4.99   -4.46   -1.71    0.08489    46.78  RIGHT     5.08437E-01    46.28    5.40573E-01    36.56
   10.00    40.00      -3.64   -2.43    0.01    0.15259    49.16  RIGHT     5.93932E-01    38.71    6.82438E-01    21.19
   15.00    40.00      -3.01   -0.84    1.22    0.20478    52.72  RIGHT     6.38753E-01    29.60    8.19993E-01     5.68
   20.00    40.00      -5.12   -1.73   -0.09    0.22510    57.13  RIGHT     5.01206E-01    15.79    7.40155E-01   -11.69
   25.00    40.00     -13.15  -10.11   -8.36    0.15671    55.35  RIGHT     1.98715E-01   -46.41    2.82018E-01   -65.37
   30.00    40.00      -5.89   -1.31   -0.01    0.33888    63.77  RIGHT     4.58198E-01  -135.10    7.76740E-01  -179.10
   35.00    40.00      -5.82    1.11    1.91    0.26450    69.85  RIGHT     4.62270E-01  -160.14    1.02666E+00   158.54
   40.00    40.00     -12.88   -9.34   -7.75    0.36958    60.28  RIGHT     2.04938E-01    85.07    3.08021E-01    40.24
   45.00    40.00      -6.50    3.09    3.54    0.23961    77.04  RIGHT     4.27444E-01    27.76    1.28852E+00   -21.55
   50.00    40.00     -14.71  -10.75   -9.28    0.26519    59.73  RIGHT     1.66037E-01   -81.29    2.62100E-01  -114.52
   55.00    40.00      -9.17    4.17    4.36    0.15851    81.70  RIGHT     3.14326E-01  -157.95    1.45931E+00   153.36
   60.00    40.00     -13.67   -3.87   -3.44    0.30667    84.04  RIGHT     1.87207E-01    68.52    5.78174E-01    -4.51
   65.00    40.00     -14.73    3.15    3.22    0.04776    83.25  RIGHT     1.65678E-01   -11.42    1.29755E+00   -33.71
   70.00    40.00     -15.40    4.52    4.56    0.08635    87.01  RIGHT     1.53378E-01  -146.47    1.51937E+00   154.47
   75.00    40.00     -18.38  -15.03  -13.37    0.06129    55.87  RIGHT     1.08899E-01    95.37    1.60150E-01    87.82
   80.00    40.00     -18.68    5.40    5.41    0.02473    86.71  LEFT      1.05193E-01   -54.70    1.68114E+00   -31.33
   85.00    40.00     -23.55    5.26    5.27    0.01863    88.22  LEFT      6.00535E-02   120.03    1.65554E+00   150.97
   90.00    40.00    -999.99 -191.13 -191.10    0.06497    86.90  LEFT      2.12278E-11   -81.05    2.50855E-10   -30.70
    0.00    50.00      -4.35   -7.15   -2.52    0.00966    35.92  RIGHT     5.47409E-01    49.76    3.96584E-01    48.60
    5.00    50.00      -3.66   -6.12   -1.71    0.10003    36.82  RIGHT     5.92529E-01    46.19    4.46278E-01    34.30
   10.00    50.00      -2.28   -3.92   -0.01    0.18375    39.25  RIGHT     6.94800E-01    38.72    5.75373E-01    17.51
   15.00    50.00      -1.60   -2.13    1.15    0.25411    43.02  RIGHT     7.51212E-01    29.75    7.06883E-01     1.18
   20.00    50.00      -3.64   -2.86   -0.22    0.29335    48.05  RIGHT     5.94325E-01    16.29    6.50146E-01   -16.56
   25.00    50.00     -11.76  -11.25   -8.49    0.23992    46.87  RIGHT     2.33253E-01   -43.70    2.47206E-01   -70.74
   30.00    50.00      -4.60   -2.08   -0.15    0.43829    57.31  RIGHT     5.32086E-01  -134.94    7.11259E-01   175.02
   35.00    50.00      -4.33    0.44    1.69    0.35793    65.14  RIGHT     5.48802E-01  -159.81    9.50024E-01   153.09
   40.00    50.00     -11.73   -9.95   -7.74    0.48752    54.59  RIGHT     2.34005E-01    87.46    2.87311E-01    33.90
   45.00    50.00      -5.07    2.60    3.29    0.31798    75.08  RIGHT     5.03823E-01    28.06    1.21866E+00   -26.82
   50.00    50.00     -13.47  -11.26   -9.22    0.37458    54.63  RIGHT     1.91629E-01   -77.60    2.47022E-01  -120.31
   55.00    50.00      -7.71    3.79    4.09    0.21086    80.76  RIGHT     3.71965E-01  -157.26    1.39776E+00   148.42
   60.00    50.00     -12.53   -4.19   -3.59    0.37622    85.91  RIGHT     2.13523E-01    71.18    5.57757E-01    -9.59
   65.00    50.00     -13.16    2.83    2.94    0.07681    82.09  RIGHT     1.98622E-01    -8.80    1.25173E+00   -38.36
   70.00    50.00     -14.16    4.24    4.30    0.11009    87.25  RIGHT     1.76853E-01  -143.45    1.47200E+00   149.85
   75.00    50.00     -17.13  -15.37  -13.15    0.14512    51.02  RIGHT     1.25644E-01    99.91    1.53877E-01    83.04
   80.00    50.00     -18.12    5.14    5.16    0.01851    86.22  LEFT      1.12086E-01   -51.50    1.63287E+00   -35.78
   85.00    50.00     -24.47    5.02    5.03    0.01551    88.30  LEFT      5.39959E-02   118.97    1.60992E+00   146.53
   90.00    50.00    -999.99 -191.37 -191.34    0.06534    86.48  LEFT      2.18920E-11   -82.07    2.43941E-10   -35.11
    0.00    60.00      -3.44   -9.70   -2.52    0.00966    25.92  RIGHT     6.07946E-01    49.63    2.95529E-01    48.22
    5.00    60.00      -2.74   -8.48   -1.71    0.11239    26.79  RIGHT     6.58709E-01    46.07    3.40250E-01    30.28
   10.00    60.00      -1.33   -5.91   -0.04    0.20999    29.07  RIGHT     7.74683E-01    38.65    4.57223E-01    11.30
   15.00    60.00      -0.62   -3.78    1.09    0.29860    32.70  RIGHT     8.40792E-01    29.78    5.84581E-01    -6.02
   20.00    60.00      -2.61   -4.24   -0.34    0.36141    38.03  RIGHT     6.68829E-01    16.55    5.54584E-01   -24.03
   25.00    60.00     -10.81  -12.59   -8.60    0.32611    37.74  RIGHT     2.60232E-01   -41.96    2.11902E-01   -78.98
   30.00    60.00      -3.69   -2.91   -0.27    0.54902    49.83  RIGHT     5.90323E-01  -135.05    6.46094E-01   167.05
   35.00    60.00      -3.30   -0.29    1.47    0.46749    60.63  RIGHT     6.17951E-01  -159.77    8.73371E-01   145.78
   40.00    60.00     -10.94  -10.54   -7.72    0.61068    47.90  RIGHT     2.56321E-01    88.77    2.68428E-01    25.83
   45.00    60.00      -4.08    2.10    3.04    0.40465    74.17  RIGHT     5.64647E-01    28.00    1.15035E+00   -33.53
   50.00    60.00     -12.60  -11.75   -9.15    0.48480    49.54  RIGHT     2.11621E-01   -75.50    2.33427E-01  -127.57
   55.00    60.00      -6.70    3.41    3.82    0.26538    80.62  RIGHT     4.17840E-01  -157.11    1.33813E+00   142.27
   60.00    60.00     -11.73   -4.49   -3.74    0.43439    89.08  RIGHT     2.34096E-01    72.55    5.38546E-01   -15.73
   65.00    60.00     -12.08    2.52    2.67    0.10852    81.39  RIGHT     2.24857E-01    -7.50    1.20749E+00   -44.08
   70.00    60.00     -13.30    3.97    4.05    0.13139    87.78  RIGHT     1.95407E-01  -141.90    1.42649E+00   144.24
   75.00    60.00     -16.25  -15.70  -12.96    0.22334    47.01  RIGHT     1.39027E-01   102.44    1.48154E-01    77.20
   80.00    60.00     -17.73    4.89    4.92    0.01095    85.82  LEFT      1.17327E-01   -49.73    1.58644E+00   -41.17
   85.00    60.00     -25.32    4.78    4.78    0.01289    88.37  LEFT      4.89327E-02   116.80    1.56609E+00   141.19
   90.00    60.00    -999.99 -191.61 -191.57    0.06416    86.04  LEFT      2.23916E-11   -83.53    2.37294E-10   -40.43
    0.00    70.00      -2.86  -13.75   -2.52    0.00966    15.92  RIGHT     6.50014E-01    49.52    1.85520E-01    47.42
    5.00    70.00      -2.15  -11.95   -1.72    0.12153    16.71  RIGHT     7.04964E-01    45.94    2.28178E-01    21.82
   10.00    70.00      -0.72   -8.53   -0.06    0.22988    18.63  RIGHT     8.31145E-01    38.54    3.38116E-01    -0.18
   15.00    70.00       0.01   -5.75    1.04    0.33482    21.68  RIGHT     9.04756E-01    29.72    4.66160E-01   -17.96
   20.00    70.00      -1.94   -5.77   -0.44    0.42429    26.68  RIGHT     7.22421E-01    16.68    4.64686E-01   -35.53
   25.00    70.00     -10.22  -13.97   -8.69    0.41288    27.48  RIGHT     2.78611E-01   -40.78    1.80884E-01   -91.35
   30.00    70.00      -3.11   -3.69   -0.38    0.67081    39.94  RIGHT     6.31091E-01  -135.35    5.90305E-01   156.63
   35.00    70.00      -2.63   -0.98    1.28    0.59802    56.65  RIGHT     6.67559E-01  -159.89    8.06772E-01   136.36
   40.00    70.00     -10.46  -11.01   -7.72    0.73885    38.73  RIGHT     2.70922E-01    89.37    2.54162E-01    16.07
   45.00    70.00      -3.44    1.65    2.82    0.49542    75.22  RIGHT     6.07988E-01    27.72    1.09247E+00   -41.70
   50.00    70.00     -12.08  -12.14   -9.10    0.59856    44.52  RIGHT     2.24924E-01   -74.39    2.23148E-01  -136.20
   55.00    70.00      -6.04    3.08    3.58    0.31737    81.59  RIGHT     4.50443E-01  -157.29    1.28794E+00   135.00
   60.00    70.00     -11.23   -4.74   -3.86    0.47012   -86.44  RIGHT     2.47934E-01    73.05    5.23062E-01   -22.81
   65.00    70.00     -11.39    2.25    2.43    0.14066    81.29  RIGHT     2.43297E-01    -6.96    1.17025E+00   -50.76
   70.00    70.00     -12.75    3.73    3.83    0.14793    88.62  RIGHT     2.08105E-01  -141.29    1.38848E+00   137.76
   75.00    70.00     -15.70  -15.97  -12.82    0.29838    43.95  RIGHT     1.48139E-01   103.67    1.43645E-01    70.42
   80.00    70.00     -17.50    4.68    4.70    0.00238    85.55  LEFT      1.20435E-01   -49.14    1.54748E+00   -47.38
   85.00    70.00     -26.04    4.57    4.58    0.01088    88.43  LEFT      4.50565E-02   113.36    1.52937E+00   135.04
   90.00    70.00    -999.99 -191.82 -191.78    0.06108    85.62  LEFT      2.27089E-11   -85.38    2.31719E-10   -46.56
    0.00    80.00      -2.56  -22.21   -2.52    0.00966     5.92  RIGHT     6.72334E-01    49.42    7.00256E-02    44.04
    5.00    80.00      -1.85  -17.16   -1.72    0.12712     6.58  RIGHT     7.29888E-01    45.80    1.25295E-01    -2.81
   10.00    80.00      -0.40  -11.47   -0.07    0.24213     7.98  RIGHT     8.62465E-01    38.39    2.41191E-01   -23.47
   15.00    80.00       0.36   -7.62    1.00    0.35870    10.03  RIGHT     9.41143E-01    29.62    3.75674E-01   -37.75
   20.00    80.00      -1.57   -7.12   -0.51    0.47281    13.69  RIGHT     7.53449E-01    16.73    3.98119E-01   -52.58
   25.00    80.00      -9.94  -14.98   -8.75    0.49351    15.34  RIGHT     2.87710E-01   -39.94    1.60975E-01  -108.59
   30.00    80.00      -2.82   -4.24   -0.46    0.78933    22.74  RIGHT     6.53112E-01  -135.78    5.54145E-01   143.88
   35.00    80.00      -2.26   -1.48    1.15    0.75475    54.52  RIGHT     6.96076E-01  -160.12    7.61403E-01   124.97
   40.00    80.00     -10.26  -11.26   -7.72    0.85924    20.17  RIGHT     2.77206E-01    89.45    2.47030E-01     5.08
   45.00    80.00      -3.10    1.34    2.68    0.57512    79.65  RIGHT     6.32463E-01    27.29    1.05386E+00   -51.09
   50.00    80.00     -11.85  -12.36   -9.08    0.72004    39.71  RIGHT     2.30870E-01   -73.99    2.17789E-01  -145.80
   55.00    80.00      -5.70    2.85    3.42    0.35812    83.86  RIGHT     4.68702E-01  -157.70    1.25433E+00   126.82
   60.00    80.00     -11.01   -4.90   -3.95    0.47360   -81.49  RIGHT     2.54411E-01    72.91    5.13518E-01   -30.57
   65.00    80.00     -11.05    2.06    2.27    0.16921    81.89  RIGHT     2.53226E-01    -6.92    1.14502E+00   -58.20
   70.00    80.00     -12.49    3.57    3.68    0.15716    89.68  RIGHT     2.14359E-01  -141.37    1.36306E+00   130.62
   75.00    80.00     -15.45  -16.14  -12.77    0.37256    42.03  RIGHT     1.52433E-01   103.98    1.40926E-01    62.96
   80.00    80.00     -17.45    4.53    4.55    0.00640    85.46  RIGHT     1.21133E-01   -49.58    1.52105E+00   -54.21
   85.00    80.00     -26.53    4.43    4.44    0.00950    88.47  LEFT      4.25761E-02   108.67    1.50455E+00   128.29
   90.00    80.00    -999.99 -191.96 -191.92    0.05605    85.25  LEFT      2.28349E-11   -87.57    2.27936E-10   -53.29
    0.00    90.00      -2.54  -25.40   -2.52    0.00966    -4.08  RIGHT     6.74227E-01    49.32    4.85240E-02  -122.92
    5.00    90.00      -1.82  -18.69   -1.73    0.12895    -3.57  RIGHT     7.32721E-01    45.64    1.04971E-01   -69.74
   10.00    90.00      -0.35  -12.37   -0.08    0.24583    -2.78  RIGHT     8.67684E-01    38.22    2.17390E-01   -62.25
   15.00    90.00       0.43   -8.25    0.98    0.36670    -2.00  RIGHT     9.48835E-01    29.49    3.49488E-01   -65.22
   20.00    90.00      -1.49   -7.60   -0.54    0.49488    -0.69  RIGHT     7.60953E-01    16.76    3.76687E-01   -74.30
   25.00    90.00      -9.95  -15.10   -8.79    0.55294     0.52  RIGHT     2.87180E-01   -39.32    1.58812E-01  -128.66
   30.00    90.00      -2.78   -4.37   -0.49    0.82259   -10.03  RIGHT     6.55694E-01  -136.32    5.45945E-01   129.82
   35.00    90.00      -2.18   -1.65    1.10    0.92556    70.88  RIGHT     7.02599E-01  -160.39    7.46570E-01   112.35
   40.00    90.00     -10.33  -11.21   -7.74    0.87120   -21.27  RIGHT     2.74894E-01    89.11    2.48414E-01    -6.23
   45.00    90.00      -3.03    1.23    2.62    0.61122    87.97  RIGHT     6.37280E-01    26.76    1.04114E+00   -61.17
   50.00    90.00     -11.91  -12.34   -9.11    0.85551    35.83  RIGHT     2.29132E-01   -74.14    2.18233E-01  -155.68
   55.00    90.00      -5.64    2.77    3.36    0.37674    87.17  RIGHT     4.72006E-01  -158.26    1.24244E+00   118.14
   60.00    90.00     -11.05   -4.94   -3.99    0.44521   -77.46  RIGHT     2.53226E-01    72.24    5.11326E-01   -38.65
   65.00    90.00     -11.01    1.99    2.20    0.18896    83.14  RIGHT     2.54249E-01    -7.22    1.13540E+00   -66.05
   70.00    90.00     -12.51    3.52    3.62    0.15738   -89.21  RIGHT     2.13870E-01  -141.99    1.35378E+00   123.12
   75.00    90.00     -15.50  -16.17  -12.81    0.44694    41.68  RIGHT     1.51637E-01   103.56    1.40358E-01    55.21
   80.00    90.00     -17.58    4.47    4.49    0.01419    85.56  RIGHT     1.19331E-01   -50.97    1.51073E+00   -61.38
   85.00    90.00     -26.72    4.38    4.38    0.00869    88.48  LEFT      4.16842E-02   103.05    1.49494E+00   121.22
   90.00    90.00    -999.99 -192.02 -191.97    0.04948    85.00  LEFT      2.27697E-11   -90.06    2.26452E-10   -60.34
    0.00   100.00      -2.78  -14.79   -2.52    0.00966   -14.08  RIGHT     6.55635E-01    49.22    1.64555E-01  -128.43
    5.00   100.00      -2.05  -13.26   -1.73    0.12696   -13.73  RIGHT     7.13376E-01    45.46    1.96337E-01  -105.31
   10.00   100.00      -0.56   -9.94   -0.09    0.24071   -13.53  RIGHT     8.46639E-01    38.03    2.87704E-01   -93.65
   15.00   100.00       0.23   -7.01    0.98    0.35741   -14.04  RIGHT     9.27587E-01    29.35    4.02976E-01   -90.52
   20.00   100.00      -1.68   -6.87   -0.53    0.48261   -15.33  RIGHT     7.44693E-01    16.78    4.09728E-01   -95.28
   25.00   100.00     -10.27  -14.25   -8.81    0.56870   -16.51  RIGHT     2.76986E-01   -38.82    1.75151E-01  -146.78
   30.00   100.00      -3.01   -4.03   -0.48    0.72541   -33.88  RIGHT     6.38745E-01  -136.95    5.67646E-01   116.23
   35.00   100.00      -2.38   -1.44    1.13    0.82022   -61.74  RIGHT     6.86910E-01  -160.69    7.65495E-01    99.86
   40.00   100.00     -10.68  -10.89   -7.77    0.76361   -42.46  RIGHT     2.64020E-01    88.38    2.57923E-01   -16.83
   45.00   100.00      -3.24    1.36    2.65    0.57928   -83.52  RIGHT     6.22266E-01    26.16    1.05642E+00   -71.16
   50.00   100.00     -12.28  -12.10   -9.18    0.97882   -83.20  RIGHT     2.19689E-01   -74.79    2.24309E-01  -165.07
   55.00   100.00      -5.86    2.85    3.40    0.36683   -89.33  RIGHT     4.60224E-01  -158.92    1.25398E+00   109.51
   60.00   100.00     -11.35   -4.85   -3.97    0.39602   -75.25  RIGHT     2.44383E-01    71.07    5.16720E-01   -46.58
   65.00   100.00     -11.29    2.04    2.24    0.19549    84.81  RIGHT     2.46285E-01    -7.79    1.14265E+00   -73.88
   70.00   100.00     -12.81    3.57    3.66    0.14869   -88.27  RIGHT     2.06613E-01  -143.10    1.36175E+00   115.67
   75.00   100.00     -15.85  -16.07  -12.95    0.51869    43.71  RIGHT     1.45717E-01   102.47    1.41987E-01    47.61
   80.00   100.00     -17.89    4.51    4.53    0.01977    85.81  RIGHT     1.15122E-01   -53.34    1.51773E+00   -68.53
   85.00   100.00     -26.55    4.42    4.42    0.00828    88.45  LEFT      4.24966E-02    97.15    1.50167E+00   114.18
   90.00   100.00    -999.99 -191.98 -191.94    0.04221    84.88  LEFT      2.25222E-11   -92.81    2.27438E-10   -67.36
    0.00   110.00      -3.31  -10.30   -2.52    0.00966   -24.08  RIGHT     6.17125E-01    49.11    2.75849E-01  -129.40
    5.00   110.00      -2.56   -9.34   -1.74    0.12126   -23.87  RIGHT     6.72440E-01    45.26    3.08093E-01  -116.34
   10.00   110.00      -1.05   -7.07   -0.08    0.22724   -24.17  RIGHT     7.99966E-01    37.82    4.00386E-01  -109.50
   15.00   110.00      -0.25   -5.02    1.00    0.33228   -25.68  RIGHT     8.78040E-01    29.21    5.06750E-01  -107.07
   20.00   110.00      -2.15   -5.44   -0.48    0.43967   -28.83  RIGHT     7.05159E-01    16.84    4.82839E-01  -110.94
   25.00   110.00     -10.90  -12.92   -8.79    0.53043   -32.98  RIGHT     2.57403E-01   -38.38    2.03984E-01  -160.12
   30.00   110.00      -3.51   -3.36   -0.43    0.60379   -46.08  RIGHT     6.02789E-01  -137.68    6.13482E-01   104.59
   35.00   110.00      -2.86   -0.91    1.23    0.65187   -61.63  RIGHT     6.49478E-01  -160.96    8.13443E-01    88.79
   40.00   110.00     -11.34  -10.37   -7.82    0.64955   -52.86  RIGHT     2.44924E-01    87.22    2.73577E-01   -25.96
   45.00   110.00      -3.73    1.68    2.78    0.50119   -78.81  RIGHT     5.87873E-01    25.53    1.09644E+00   -80.34
   50.00   110.00     -12.97  -11.70   -9.28    0.82210   -69.41  RIGHT     2.02817E-01   -75.96    2.34848E-01  -173.35
   55.00   110.00      -6.37    3.07    3.54    0.33203   -86.65  RIGHT     4.33709E-01  -159.66    1.28662E+00   101.45
   60.00   110.00     -11.95   -4.65   -3.91    0.33894   -74.88  RIGHT     2.28191E-01    69.37    5.28681E-01   -53.96
   65.00   110.00     -11.90    2.21    2.38    0.18738    86.52  RIGHT     2.29555E-01    -8.60    1.16530E+00   -81.27
   70.00   110.00     -13.41    3.72    3.80    0.13316   -87.68  RIGHT     1.92830E-01  -144.76    1.38540E+00   108.62
   75.00   110.00     -16.52  -15.86  -13.16    0.57447    49.34  RIGHT     1.34868E-01   100.64    1.45531E-01    40.60
   80.00   110.00     -18.38    4.64    4.66    0.02230    86.17  RIGHT     1.08791E-01   -56.81    1.54063E+00   -75.31
   85.00   110.00     -26.05    4.54    4.54    0.00805    88.37  LEFT      4.50027E-02    91.67    1.52335E+00   107.50
   90.00   110.00    -999.99 -191.86 -191.82    0.03523    84.91  LEFT      2.21104E-11   -95.78    2.30692E-10   -74.04
    0.00   120.00      -4.15   -7.55   -2.52    0.00966   -34.08  RIGHT     5.59867E-01    48.99    3.78795E-01  -129.82
    5.00   120.00      -3.39   -6.73   -1.74    0.11209   -33.97  RIGHT     6.11158E-01    45.03    4.16283E-01  -121.20
   10.00   120.00      -1.86   -4.80   -0.07    0.20643   -34.61  RIGHT     7.29083E-01    37.60    5.19988E-01  -117.64
   15.00   120.00      -1.04   -3.16    1.04    0.29486   -36.69  RIGHT     8.01695E-01    29.09    6.27514E-01  -116.93
   20.00   120.00      -2.94   -3.94   -0.40    0.37749   -40.65  RIGHT     6.43554E-01    16.98    5.74170E-01  -121.33
   25.00   120.00     -11.92  -11.58   -8.74    0.45354   -46.70  RIGHT     2.29000E-01   -37.92    2.38154E-01  -169.08
   30.00   120.00      -4.33   -2.55   -0.34    0.49160   -54.64  RIGHT     5.48943E-01  -138.51    6.73509E-01    95.43
   35.00   120.00      -3.68   -0.22    1.39    0.50996   -65.03  RIGHT     5.91448E-01  -161.18    8.80336E-01    79.78
   40.00   120.00     -12.34   -9.79   -7.87    0.54402   -60.83  RIGHT     2.18255E-01    85.49    2.92623E-01   -33.35
   45.00   120.00      -4.55    2.13    2.97    0.41023   -77.57  RIGHT     5.35161E-01    24.88    1.15384E+00   -88.21
   50.00   120.00     -14.05  -11.22   -9.40    0.67428   -73.57  RIGHT     1.79089E-01   -77.83    2.48112E-01   179.79
   55.00   120.00      -7.22    3.39    3.75    0.28254   -85.21  RIGHT     3.93281E-01  -160.47    1.33474E+00    94.35
   60.00   120.00     -12.87   -4.38   -3.81    0.28290   -75.97  RIGHT     2.05273E-01    66.94    5.45225E-01   -60.47
   65.00   120.00     -12.90    2.47    2.59    0.16670    87.94  RIGHT     2.04573E-01    -9.69    1.19963E+00   -87.87
   70.00   120.00     -14.35    3.93    4.00    0.11380   -87.52  RIGHT     1.73039E-01  -147.11    1.42083E+00   102.30
   75.00   120.00     -17.57  -15.57  -13.44    0.58332    58.68  RIGHT     1.19530E-01    97.81    1.50460E-01    34.48
   80.00   120.00     -19.04    4.83    4.85    0.02158    86.55  RIGHT     1.00838E-01   -61.64    1.57571E+00   -81.43
   85.00   120.00     -25.30    4.73    4.73    0.00779    88.25  LEFT      4.90686E-02    87.14    1.55646E+00   101.46
   90.00   120.00    -999.99 -191.67 -191.63    0.02937    85.05  LEFT      2.15594E-11   -98.94    2.35687E-10   -80.07
    0.00   130.00      -5.39   -5.67   -2.52    0.00966   -44.08  RIGHT     4.85600E-01    48.83    4.70243E-01  -130.07
    5.00   130.00      -4.61   -4.90   -1.74    0.09981   -44.03  RIGHT     5.31394E-01    44.75    5.13963E-01  -123.84
   10.00   130.00      -3.04   -3.10   -0.06    0.17964   -44.81  RIGHT     6.36146E-01    37.35    6.32148E-01  -122.28
   15.00   130.00      -2.20   -1.66    1.09    0.24921   -47.03  RIGHT     7.00875E-01    29.00    7.46079E-01  -122.95
   20.00   130.00      -4.12   -2.62   -0.30    0.30659   -50.96  RIGHT     5.61762E-01    17.26    6.67676E-01  -128.06
   25.00   130.00     -13.42  -10.41   -8.65    0.35923   -57.81  RIGHT     1.92622E-01   -37.38    2.72459E-01  -174.92
   30.00   130.00      -5.51   -1.76   -0.23    0.39228   -61.86  RIGHT     4.78888E-01  -139.53    7.37794E-01    88.58
   35.00   130.00      -4.89    0.48    1.59    0.38997   -69.17  RIGHT     5.14596E-01  -161.29    9.54966E-01    72.86
   40.00   130.00     -13.77   -9.22   -7.92    0.44643   -68.02  RIGHT     1.84991E-01    82.86    3.12331E-01   -39.04
   45.00   130.00      -5.75    2.61    3.20    0.32251   -78.35  RIGHT     4.65761E-01    24.19    1.21956E+00   -94.59
   50.00   130.00     -15.63  -10.74   -9.52    0.53506   -78.40  RIGHT     1.49407E-01   -80.85    2.62263E-01   174.42
   55.00   130.00      -8.48    3.75    4.00    0.22782   -84.91  RIGHT     3.40201E-01  -161.38    1.39103E+00    88.42
   60.00   130.00     -14.18   -4.09   -3.69    0.23251   -78.12  RIGHT     1.76604E-01    63.41    5.63873E-01   -65.93
   65.00   130.00     -14.40    2.76    2.84    0.13745    88.91  RIGHT     1.72134E-01   -11.20    1.24055E+00   -93.47
   70.00   130.00     -15.71    4.19    4.23    0.09336   -87.76  RIGHT     1.48062E-01  -150.57    1.46277E+00    96.90
   75.00   130.00     -19.08  -15.25  -13.74    0.51873    68.02  RIGHT     1.00439E-01    93.35    1.56120E-01    29.41
   80.00   130.00     -19.84    5.06    5.08    0.01798    86.91  RIGHT     9.20251E-02   -68.21    1.61782E+00   -86.69
   85.00   130.00     -24.39    4.95    4.95    0.00738    88.09  LEFT      5.44856E-02    83.76    1.59613E+00    96.26
   90.00   130.00    -999.99 -191.45 -191.42    0.02510    85.27  LEFT      2.09001E-11  -102.26    2.41690E-10   -85.27
    0.00   140.00      -7.15   -4.35   -2.52    0.00966   -54.08  RIGHT     3.96584E-01    48.60    5.47409E-01  -130.24
    5.00   140.00      -6.33   -3.60   -1.74    0.08487   -54.02  RIGHT     4.35578E-01    44.37    5.97088E-01  -125.44
   10.00   140.00      -4.73   -1.85   -0.05    0.14828   -54.75  RIGHT     5.23981E-01    37.04    7.29578E-01  -125.13
   15.00   140.00      -3.87   -0.51    1.14    0.19868   -56.75  RIGHT     5.78644E-01    28.97    8.51826E-01  -126.75
   20.00   140.00      -5.82   -1.58   -0.19    0.23330   -60.17  RIGHT     4.62293E-01    17.80    7.53332E-01  -132.44
   25.00   140.00     -15.63   -9.47   -8.53    0.26010   -67.16  RIGHT     1.49360E-01   -36.60    3.03535E-01  -178.65
   30.00   140.00      -7.19   -1.07   -0.12    0.30432   -68.48  RIGHT     3.94832E-01  -140.88    7.98302E-01    83.62
   35.00   140.00      -6.62    1.12    1.80    0.28661   -73.55  RIGHT     4.21278E-01  -161.23    1.02759E+00    67.76
   40.00   140.00     -15.80   -8.74   -7.96    0.35493   -74.93  RIGHT     1.46537E-01    78.51    3.30393E-01   -43.22
   45.00   140.00      -7.48    3.06    3.43    0.24263   -80.24  RIGHT     3.81814E-01    23.42    1.28485E+00   -99.53
   50.00   140.00     -17.89  -10.31   -9.61    0.40188   -83.41  RIGHT     1.15152E-01   -86.17    2.75672E-01   170.44
   55.00   140.00     -10.29    4.10    4.25    0.17344   -85.46  RIGHT     2.76124E-01  -162.49    1.44796E+00    83.72
   60.00   140.00     -15.97   -3.82   -3.56    0.18940   -81.00  RIGHT     1.43656E-01    57.89    5.82119E-01   -70.30
   65.00   140.00     -16.62    3.05    3.09    0.10343    89.41  RIGHT     1.33315E-01   -13.57    1.28262E+00   -97.98
   70.00   140.00     -17.59    4.44    4.47    0.07361   -88.33  RIGHT     1.19148E-01  -156.05    1.50556E+00    92.52
   75.00   140.00     -21.18  -14.93  -14.01    0.39533    73.82  RIGHT     7.88455E-02    85.74    1.61856E-01    25.46
   80.00   140.00     -20.69    5.29    5.30    0.01211    87.21  RIGHT     8.34349E-02   -77.00    1.66132E+00   -90.99
   85.00   140.00     -23.41    5.17    5.17    0.00678    87.90  LEFT      6.10204E-02    81.51    1.63701E+00    92.00
   90.00   140.00    -999.99 -191.23 -191.20    0.02251    85.53  LEFT      2.01669E-11  -105.69    2.47895E-10   -89.53
    0.00   150.00      -9.70   -3.44   -2.52    0.00966   -64.08  RIGHT     2.95529E-01    48.22    6.07946E-01  -130.37
    5.00   150.00      -8.83   -2.69   -1.75    0.06775   -63.97  RIGHT     3.26636E-01    43.77    6.62703E-01  -126.44
   10.00   150.00      -7.16   -0.97   -0.04    0.11364   -64.47  RIGHT     3.96007E-01    36.60    8.07655E-01  -126.91
   15.00   150.00      -6.27    0.33    1.19    0.14564   -65.99  RIGHT     4.38719E-01    29.03    9.38207E-01  -129.16
   20.00   150.00      -8.28   -0.79   -0.08    0.16059   -68.63  RIGHT     3.48229E-01    18.86    8.24767E-01  -135.24
   25.00   150.00     -19.07   -8.77   -8.38    0.16165   -75.46  RIGHT     1.00529E-01   -35.21    3.29203E-01   179.12
   30.00   150.00      -9.59   -0.54   -0.03    0.22533   -74.77  RIGHT     2.99492E-01  -142.96    8.49102E-01    80.17
   35.00   150.00      -9.17    1.64    1.98    0.19546   -78.02  RIGHT     3.14351E-01  -160.84    1.09069E+00    64.19
   40.00   150.00     -18.68   -8.36   -7.97    0.26796   -81.71  RIGHT     1.05152E-01    70.20    3.45049E-01   -46.09
   45.00   150.00      -9.99    3.44    3.63    0.17059   -82.73  RIGHT     2.85911E-01    22.43    1.34234E+00  -103.13
   50.00   150.00     -21.18   -9.96   -9.64    0.27361   -88.53  RIGHT     7.88830E-02   -97.30    2.87047E-01   167.74
   55.00   150.00     -12.96    4.40    4.48    0.12168   -86.59  RIGHT     2.03064E-01  -164.12    1.49887E+00    80.21
   60.00   150.00     -18.38   -3.59   -3.44    0.15334   -84.38  RIGHT     1.08889E-01    48.25    5.97745E-01   -73.57
   65.00   150.00     -20.07    3.30    3.32    0.06732    89.53  RIGHT     8.95759E-02   -18.27    1.32090E+00  -101.39
   70.00   150.00     -20.18    4.66    4.67    0.05534   -89.15  RIGHT     8.84391E-02  -165.93    1.54399E+00    89.18
   75.00   150.00     -23.95  -14.66  -14.17    0.24298    76.35  RIGHT     5.72992E-02    71.02    1.67096E-01    22.62
   80.00   150.00     -21.44    5.50    5.51    0.00462    87.44  RIGHT     7.65009E-02   -88.37    1.70094E+00   -94.28
   85.00   150.00     -22.41    5.36    5.37    0.00604    87.68  LEFT      6.84413E-02    80.22    1.67410E+00    88.74
   90.00   150.00    -999.99 -191.03 -191.01    0.02147    85.80  LEFT      1.93946E-11  -109.18    2.53545E-10   -92.79
    0.00   160.00     -13.75   -2.86   -2.52    0.00966   -74.08  RIGHT     1.85520E-01    47.42    6.50014E-01  -130.48
    5.00   160.00     -12.76   -2.11   -1.75    0.04898   -73.86  RIGHT     2.07924E-01    42.51    7.08613E-01  -127.07
   10.00   160.00     -10.95   -0.39   -0.03    0.07677   -74.00  RIGHT     2.56137E-01    35.76    8.63208E-01  -127.99
   15.00   160.00     -10.01    0.89    1.23    0.09146   -74.88  RIGHT     2.85357E-01    29.28    1.00092E+00  -130.60
   20.00   160.00     -12.14   -0.25    0.02    0.08945   -76.61  RIGHT     2.23235E-01    21.30    8.77816E-01  -136.90
   25.00   160.00     -25.55   -8.28   -8.20    0.06589   -83.15  RIGHT     4.76990E-02   -31.16    3.48054E-01   178.03
   30.00   160.00     -13.26   -0.17    0.04    0.15287   -80.89  RIGHT     1.96240E-01  -147.09    8.86054E-01    77.95
   35.00   160.00     -13.22    2.01    2.14    0.11281   -82.52  RIGHT     1.97115E-01  -159.63    1.13886E+00    61.89
   40.00   160.00     -22.70   -8.11   -7.96    0.18436   -88.44  RIGHT     6.61734E-02    50.33    3.55064E-01   -47.80
   45.00   160.00     -13.96    3.72    3.80    0.10482   -85.55  RIGHT     1.81041E-01    20.62    1.38641E+00  -105.52
   50.00   160.00     -25.42   -9.71   -9.59    0.15008    86.25  RIGHT     4.83761E-02  -126.82    2.95462E-01   166.18
   55.00   160.00     -17.29    4.63    4.65    0.07285   -88.07  RIGHT     1.23442E-01  -167.53    1.53848E+00    77.83
   60.00   160.00     -21.32   -3.42   -3.35    0.12301   -88.09  RIGHT     7.76168E-02    29.16    6.09002E-01   -75.78
   65.00   160.00     -26.28    3.50    3.50    0.03053    89.37  RIGHT     4.38291E-02   -33.41    1.35132E+00  -103.73
   70.00   160.00     -23.42    4.82    4.83    0.03862    89.86  RIGHT     6.09003E-02   173.26    1.57379E+00    86.88
   75.00   160.00     -26.55  -14.44  -14.18    0.07994    76.79  RIGHT     4.25062E-02    40.73    1.71391E-01    20.85
   80.00   160.00     -21.87    5.66    5.66    0.00398    87.60  LEFT      7.28221E-02  -102.00    1.73229E+00   -96.56
   85.00   160.00     -21.44    5.51    5.52    0.00526    87.45  LEFT      7.65227E-02    79.73    1.70321E+00    86.47
   90.00   160.00    -999.99 -190.88 -190.86    0.02172    86.06  LEFT      1.86156E-11  -112.67    2.58010E-10   -95.06
    0.00   170.00     -22.21   -2.56   -2.52    0.00966   -84.08  RIGHT     7.00256E-02    44.04    6.72334E-01  -130.58
    5.00   170.00     -20.70   -1.81   -1.75    0.02908   -83.73  RIGHT     8.33657E-02    37.59    7.33320E-01  -127.41
   10.00   170.00     -18.39   -0.09   -0.02    0.03852   -83.42  RIGHT     1.08777E-01    32.75    8.94146E-01  -128.53
   15.00   170.00     -17.30    1.20    1.26    0.03686   -83.56  RIGHT     1.23241E-01    30.39    1.03719E+00  -131.30
   20.00   170.00     -19.80    0.06    0.11    0.01985   -84.31  RIGHT     9.24566E-02    30.97    9.09841E-01  -137.65
   25.00   170.00     -39.04   -8.01   -8.00    0.02658    89.48  LEFT      1.00918E-02   106.74    3.59244E-01   177.88
   30.00   170.00     -19.94    0.03    0.07    0.08451   -86.91  RIGHT     9.09178E-02  -160.90    9.06495E-01    76.78
   35.00   170.00     -21.79    2.24    2.25    0.03551   -87.03  RIGHT     7.35203E-02  -153.77    1.16854E+00    60.70
   40.00   170.00     -25.29   -8.00   -7.92    0.10333    84.90  RIGHT     4.91046E-02     1.27    3.59693E-01   -48.45
   45.00   170.00     -22.10    3.89    3.90    0.04322   -88.54  RIGHT     7.09137E-02    13.66    1.41324E+00  -106.82
   50.00   170.00     -25.32   -9.56   -9.45    0.03174    80.92  RIGHT     4.89442E-02   177.23    3.00350E-01   165.71
   55.00   170.00     -26.75    4.76    4.77    0.02623   -89.76  RIGHT     4.15192E-02   175.58    1.56307E+00    76.52
   60.00   170.00     -23.12   -3.34   -3.30    0.09643    88.00  RIGHT     6.30331E-02    -6.65    6.14690E-01   -76.95
   65.00   170.00     -31.31    3.62    3.63    0.00639    89.04  LEFT      2.45500E-02  -125.94    1.37098E+00  -105.02
   70.00   170.00     -25.11    4.92    4.93    0.02302    88.77  RIGHT     5.01310E-02   132.60    1.59187E+00    85.59
   75.00   170.00     -25.79  -14.28  -13.99    0.08515    75.86  LEFT      4.63694E-02     0.20    1.74435E-01    20.11
   80.00   170.00     -21.78    5.76    5.76    0.01335    87.72  LEFT      7.35616E-02  -116.41    1.75216E+00   -97.84
   85.00   170.00     -20.52    5.60    5.61    0.00458    87.18  LEFT      8.50401E-02    79.86    1.72131E+00    85.19
   90.00   170.00    -999.99 -190.79 -190.77    0.02301    86.31  LEFT      1.78575E-11  -116.06    2.60825E-10   -96.34
    0.00   180.00     -25.40   -2.54   -2.52    0.00966    85.92  RIGHT     4.85240E-02  -122.92    6.74227E-01  -130.68
    5.00   180.00     -25.77   -1.78   -1.76    0.00858    86.42  RIGHT     4.64670E-02  -119.67    7.36024E-01  -127.51
   10.00   180.00     -26.33   -0.04   -0.03    0.00043    87.23  LEFT      4.35799E-02  -129.14    8.99347E-01  -128.63
   15.00   180.00     -26.44    1.27    1.28    0.01784    87.87  LEFT      4.30465E-02  -157.07    1.04556E+00  -131.36
   20.00   180.00     -24.45    0.15    0.17    0.04871    88.11  LEFT      5.41181E-02   166.43    9.19444E-01  -137.63
   25.00   180.00     -22.87   -7.93   -7.79    0.11570    82.21  LEFT      6.49151E-02   137.47    3.62411E-01   178.61
   30.00   180.00     -25.40    0.06    0.07    0.01794    87.12  RIGHT     4.85310E-02    96.26    9.09039E-01    76.57
   35.00   180.00     -24.15    2.31    2.32    0.03927    88.46  LEFT      5.60061E-02     4.78    1.17779E+00    60.52
   40.00   180.00     -21.66   -8.02   -7.84    0.02425    78.32  RIGHT     7.46512E-02   -41.10    3.58639E-01   -48.08
   45.00   180.00     -25.84    3.93    3.94    0.01642    88.40  LEFT      4.61172E-02  -137.49    1.42070E+00  -107.07
   50.00   180.00     -20.84   -9.53   -9.22    0.08064    75.44  LEFT      8.19867E-02   147.82    3.01482E-01   166.26
   55.00   180.00     -24.81    4.81    4.81    0.01932    88.46  LEFT      5.18866E-02    40.42    1.57053E+00    76.24
   60.00   180.00     -21.27   -3.35   -3.28    0.07130    83.99  RIGHT     7.80718E-02   -42.56    6.14186E-01   -77.11
   65.00   180.00     -22.43    3.67    3.68    0.04344    88.63  LEFT      6.82964E-02  -166.60    1.37819E+00  -105.30
   70.00   180.00     -22.53    4.95    4.96    0.00790    87.62  RIGHT     6.74740E-02    96.10    1.59646E+00    85.31
   75.00   180.00     -22.61  -14.20  -13.62    0.24796    73.88  LEFT      6.68784E-02   -24.36    1.76072E-01    20.37
   80.00   180.00     -21.19    5.79    5.80    0.02327    87.81  LEFT      7.87374E-02  -129.51    1.75868E+00   -98.14
   85.00   180.00     -19.68    5.63    5.64    0.00416    86.90  LEFT      9.37641E-02    80.49    1.72662E+00    84.90
   90.00   180.00    -999.99 -190.76 -190.74    0.02510    86.54  LEFT      1.71407E-11  -119.26    2.61722E-10   -96.64
    0.00   190.00     -14.79   -2.78   -2.52    0.00966    75.92  RIGHT     1.64555E-01  -128.43    6.55635E-01  -130.78
    5.00   190.00     -14.44   -2.01   -1.77    0.01200    76.57  LEFT      1.71390E-01  -130.43    7.16627E-01  -127.39
   10.00   190.00     -13.44   -0.24   -0.04    0.03948    77.86  LEFT      1.92133E-01  -139.16    8.78625E-01  -128.27
   15.00   190.00     -12.77    1.10    1.28    0.07251    79.29  LEFT      2.07715E-01  -152.56    1.02574E+00  -130.79
   20.00   190.00     -13.77    0.03    0.21    0.11689    80.50  LEFT      1.84974E-01  -172.89    9.06353E-01  -136.83
   25.00   190.00     -17.50   -8.05   -7.58    0.20145    74.87  LEFT      1.20391E-01   140.39    3.57643E-01  -179.80
   30.00   190.00     -15.84   -0.09    0.02    0.04916    81.16  LEFT      1.45731E-01    59.33    8.93477E-01    77.31
   35.00   190.00     -13.93    2.22    2.32    0.11417    83.95  LEFT      1.81632E-01    13.50    1.16620E+00    61.33
   40.00   190.00     -17.76   -8.18   -7.73    0.05341    71.85  LEFT      1.16936E-01   -56.93    3.52044E-01   -46.68
   45.00   190.00     -15.18    3.86    3.91    0.07630    85.34  LEFT      1.57252E-01  -149.76    1.40832E+00  -106.30
   50.00   190.00     -17.31   -9.60   -8.92    0.18624    69.78  LEFT      1.23100E-01   137.10    2.98957E-01   167.84
   55.00   190.00     -16.46    4.75    4.78    0.06511    86.70  LEFT      1.35744E-01    28.31    1.56035E+00    76.99
   60.00   190.00     -18.22   -3.45   -3.30    0.04521    79.97  RIGHT     1.10865E-01   -61.46    6.07447E-01   -76.25
   65.00   190.00     -17.63    3.63    3.67    0.08081    88.24  LEFT      1.18642E-01  -173.93    1.37248E+00  -104.58
   70.00   190.00     -19.22    4.90    4.91    0.00749    86.46  LEFT      9.88343E-02    79.08    1.58717E+00    86.01
   75.00   190.00     -19.72  -14.19  -13.12    0.40554    70.80  LEFT      9.33065E-02   -35.78    1.76285E-01    21.60
   80.00   190.00     -20.30    5.75    5.76    0.03360    87.89  LEFT      8.72432E-02  -139.95    1.75136E+00   -97.46
   85.00   190.00     -18.91    5.59    5.60    0.00420    86.60  LEFT      1.02457E-01    81.52    1.71869E+00    85.58
   90.00   190.00    -999.99 -190.80 -190.78    0.02781    86.75  LEFT      1.64769E-11  -122.15    2.60630E-10   -95.96
    0.00   200.00     -10.30   -3.31   -2.52    0.00966    65.92  RIGHT     2.75849E-01  -129.40    6.17125E-01  -130.89
    5.00   200.00      -9.81   -2.52   -1.78    0.03211    66.69  LEFT      2.91976E-01  -132.07    6.75737E-01  -127.01
   10.00   200.00      -8.60   -0.71   -0.05    0.07800    68.42  LEFT      3.35510E-01  -140.36    8.32722E-01  -127.43
   15.00   200.00      -7.84    0.70    1.27    0.12701    70.58  LEFT      3.66334E-01  -151.91    9.78627E-01  -129.54
   20.00   200.00      -9.15   -0.31    0.22    0.18528    72.72  LEFT      3.14955E-01  -169.28    8.71413E-01  -135.20
   25.00   200.00     -14.33   -8.35   -7.37    0.28369    67.29  LEFT      1.73435E-01   141.86    3.45489E-01  -177.24
   30.00   200.00     -11.16   -0.42   -0.07    0.11912    75.17  LEFT      2.49787E-01    53.03    8.60763E-01    79.06
   35.00   200.00      -9.48    1.98    2.28    0.19180    79.44  LEFT      3.03392E-01    15.32    1.13481E+00    63.17
   40.00   200.00     -14.98   -8.47   -7.60    0.13024    65.51  LEFT      1.61037E-01   -63.53    3.40488E-01   -44.18
   45.00   200.00     -10.64    3.66    3.82    0.13863    82.37  LEFT      2.65401E-01  -151.53    1.37723E+00  -104.48
   50.00   200.00     -14.80   -9.77   -8.59    0.28438    63.91  LEFT      1.64417E-01   132.40    2.93194E-01   170.48
   55.00   200.00     -12.35    4.60    4.69    0.11243    85.04  LEFT      2.17823E-01    25.88    1.53362E+00    78.77
   60.00   200.00     -15.70   -3.63   -3.36    0.01581    76.04  RIGHT     1.48242E-01   -70.49    5.95019E-01   -74.36
   65.00   200.00     -14.62    3.52    3.59    0.11868    87.96  LEFT      1.67834E-01  -176.41    1.35465E+00  -102.85
   70.00   200.00     -16.63    4.77    4.81    0.02394    85.33  LEFT      1.33125E-01    71.27    1.56493E+00    87.73
   75.00   200.00     -17.49  -14.25  -12.56    0.55454    66.17  LEFT      1.20641E-01   -41.43    1.75201E-01    23.80
   80.00   200.00     -19.33    5.65    5.66    0.04421    88.00  LEFT      9.75517E-02  -147.56    1.73109E+00   -95.79
   85.00   200.00     -18.22    5.49    5.50    0.00495    86.28  LEFT      1.10873E-01    82.87    1.69842E+00    87.24
   90.00   200.00    -999.99 -190.89 -190.88    0.03097    86.95  LEFT      1.58700E-11  -124.59    2.57678E-10   -94.30
    0.00   210.00      -7.55   -4.15   -2.52    0.00966    55.92  RIGHT     3.78795E-01  -129.82    5.59867E-01  -131.01
    5.00   210.00      -6.99   -3.34   -1.79    0.05123    56.77  LEFT      4.03711E-01  -132.70    6.14653E-01  -126.31
   10.00   210.00      -5.70   -1.46   -0.07    0.11528    58.84  LEFT      4.68658E-01  -140.75    7.63333E-01  -125.97
   15.00   210.00      -4.90    0.03    1.24    0.18094    61.62  LEFT      5.13949E-01  -151.54    9.06364E-01  -127.44
   20.00   210.00      -6.32   -0.88    0.22    0.25417    64.61  LEFT      4.36548E-01  -167.63    8.16656E-01  -132.58
   25.00   210.00     -12.17   -8.82   -7.17    0.36187    59.29  LEFT      2.22383E-01   142.98    3.27001E-01  -173.54
   30.00   210.00      -8.30   -0.91   -0.19    0.19433    69.11  LEFT      3.47321E-01    50.75    8.13085E-01    81.98
   35.00   210.00      -6.71    1.60    2.20    0.27489    74.92  LEFT      4.16948E-01    16.34    1.08619E+00    66.15
   40.00   210.00     -12.98   -8.88   -7.45    0.20699    59.33  LEFT      2.02630E-01   -66.69    3.25015E-01   -40.45
   45.00   210.00      -7.84    3.36    3.68    0.20552    79.61  LEFT      3.66158E-01  -151.94    1.33027E+00  -101.52
   50.00   210.00     -12.96  -10.02   -8.24    0.37476    57.81  LEFT      2.03160E-01   130.18    2.84933E-01   174.22
   55.00   210.00      -9.74    4.37    4.53    0.16235    83.61  LEFT      2.94390E-01    25.18    1.49301E+00    81.63
   60.00   210.00     -13.78   -3.88   -3.45    0.01894    72.30  LEFT      1.84770E-01   -75.12    5.78035E-01   -71.38
   65.00   210.00     -12.52    3.34    3.45    0.15690    87.90  LEFT      2.13760E-01  -177.27    1.32669E+00  -100.09
   70.00   210.00     -14.70    4.59    4.64    0.04213    84.29  LEFT      1.66260E-01    67.38    1.53204E+00    90.46
[...]
   50.00   280.00      -9.49  -10.90   -7.13    0.84697    -6.40  LEFT      3.02739E-01   134.17    2.57491E-01  -133.71
   55.00   280.00      -4.96    3.09    3.72    0.38821   -85.52  LEFT      5.10426E-01    30.06    1.28939E+00   129.73
   60.00   280.00     -10.16   -4.99   -3.84    0.37621    67.58  LEFT      2.80517E-01   -75.10    5.08392E-01   -23.92
   65.00   280.00      -8.45    2.36    2.71    0.25653   -82.51  LEFT      3.41465E-01  -171.31    1.18539E+00   -56.12
   70.00   280.00     -10.96    3.67    3.81    0.16667    85.33  LEFT      2.55594E-01    68.87    1.37739E+00   133.56
   75.00   280.00     -12.40  -14.81  -10.43    0.63805   -25.00  LEFT      2.16661E-01   -40.93    1.64117E-01    68.66
   80.00   280.00     -16.59    4.70    4.73    0.08447   -88.99  LEFT      1.33786E-01  -153.67    1.55077E+00   -52.01
   85.00   280.00     -16.09    4.55    4.58    0.04717    85.42  LEFT      1.41631E-01    99.98    1.52448E+00   130.71
   90.00   280.00    -999.99 -191.81 -191.80    0.05017    88.65  LEFT      1.28555E-11  -115.89    2.31786E-10   -51.06
    0.00   290.00      -3.31  -10.30   -2.52    0.00966   -24.08  RIGHT     6.17125E-01  -130.89    2.75849E-01    50.60
    5.00   290.00      -2.64   -9.31   -1.79    0.10790   -24.30  LEFT      6.66778E-01  -133.26    3.09128E-01    30.51
   10.00   290.00      -1.13   -6.89   -0.11    0.22972   -24.92  LEFT      7.93054E-01  -140.00    4.08788E-01     7.61
   15.00   290.00      -0.18   -4.55    1.17    0.35036   -26.73  LEFT      8.85005E-01  -148.63    5.34712E-01   -13.46
   20.00   290.00      -1.62   -4.53    0.17    0.45747   -30.22  LEFT      7.49454E-01  -161.41    5.36318E-01   -34.48
   25.00   290.00      -8.70  -10.87   -6.64    0.54836   -31.44  LEFT      3.31795E-01   152.61    2.58353E-01   -87.81
   30.00   290.00      -3.89   -3.30   -0.57    0.66192   -50.00  LEFT      5.77422E-01    51.48    6.17989E-01   164.17
   35.00   290.00      -2.14   -0.37    1.85    0.59833   -57.59  LEFT      7.06000E-01    22.99    8.65697E-01   138.88
   40.00   290.00      -9.97   -9.93   -6.94    0.94786   -47.83  LEFT      2.86563E-01   -63.40    2.88081E-01    29.65
   45.00   290.00      -3.31    1.98    3.10    0.49822   -77.21  LEFT      6.16987E-01  -146.64    1.13404E+00   -38.59
   50.00   290.00      -9.97  -10.59   -7.26    0.85944   -30.64  LEFT      2.86760E-01   136.15    2.66743E-01  -126.25
   55.00   290.00      -5.42    3.35    3.89    0.34571   -83.39  LEFT      4.83794E-01    31.28    1.32793E+00   137.52
   60.00   290.00     -10.66   -4.73   -3.74    0.38532    71.60  LEFT      2.64676E-01   -73.08    5.24222E-01   -16.58
   65.00   290.00      -8.88    2.56    2.86    0.22616   -81.80  LEFT      3.24962E-01  -169.67    1.21223E+00   -49.02
   70.00   290.00     -11.44    3.86    3.98    0.16057    86.48  LEFT      2.42119E-01    70.85    1.40811E+00   140.45
   75.00   290.00     -12.83  -14.66  -10.64    0.61914   -31.09  LEFT      2.06232E-01   -38.81    1.66974E-01    74.96
   80.00   290.00     -17.00    4.86    4.89    0.07791   -88.79  LEFT      1.27525E-01  -150.44    1.58023E+00   -45.41
   85.00   290.00     -16.26    4.71    4.74    0.05079    85.79  LEFT      1.38915E-01   102.42    1.55318E+00   137.24
   90.00   290.00    -999.99 -191.66 -191.64    0.04998    88.75  LEFT      1.28691E-11  -111.07    2.36045E-10   -44.55
    0.00   300.00      -4.15   -7.55   -2.52    0.00966   -34.08  RIGHT     5.59867E-01  -131.01    3.78795E-01    50.18
    5.00   300.00      -3.47   -6.69   -1.78    0.09875   -34.43  LEFT      6.05450E-01  -133.23    4.18316E-01    34.70
   10.00   300.00      -1.94   -4.65   -0.08    0.20866   -35.40  LEFT      7.22100E-01  -139.77    5.28996E-01    15.43
   15.00   300.00      -0.96   -2.82    1.22    0.31224   -37.60  LEFT      8.08548E-01  -148.18    6.53185E-01    -3.77
   20.00   300.00      -2.37   -3.25    0.22    0.39825   -40.98  LEFT      6.87618E-01  -160.65    6.20941E-01   -24.37
   25.00   300.00      -9.46  -10.04   -6.73    0.50163   -41.77  LEFT      3.04103E-01   154.45    2.84286E-01   -79.00
   30.00   300.00      -4.74   -2.43   -0.43    0.53314   -58.87  LEFT      5.23388E-01    52.24    6.82501E-01   172.95
   35.00   300.00      -2.89    0.27    1.98    0.48131   -61.97  LEFT      6.47693E-01    23.91    9.31691E-01   147.42
   40.00   300.00     -10.80   -9.37   -7.02    0.80737   -70.26  LEFT      2.60565E-01   -61.10    3.07051E-01    36.70
   45.00   300.00      -4.09    2.43    3.30    0.41043   -76.61  LEFT      5.64113E-01  -145.58    1.19469E+00   -31.05
   50.00   300.00     -10.69  -10.25   -7.45    0.81096   -52.12  LEFT      2.63868E-01   138.58    2.77624E-01  -119.86
   55.00   300.00      -6.18    3.68    4.11    0.29390   -82.57  LEFT      4.43282E-01    32.62    1.37980E+00   144.34
   60.00   300.00     -11.44   -4.40   -3.61    0.36545    75.61  LEFT      2.42072E-01   -70.50    5.44511E-01   -10.22
   65.00   300.00      -9.57    2.81    3.06    0.19279   -81.82  LEFT      3.00175E-01  -167.81    1.24864E+00   -42.69
   70.00   300.00     -12.17    4.11    4.21    0.14677    87.41  LEFT      2.22559E-01    73.31    1.44931E+00   146.58
   75.00   300.00     -13.49  -14.48  -10.95    0.60594   -37.89  LEFT      1.91096E-01   -36.24    1.70470E-01    80.61
   80.00   300.00     -17.58    5.07    5.10    0.07051   -88.78  LEFT      1.19347E-01  -146.25    1.62000E+00   -39.49
   85.00   300.00     -16.52    4.92    4.95    0.05220    86.19  LEFT      1.34767E-01   104.84    1.59182E+00   143.10
   90.00   300.00    -999.99 -191.45 -191.43    0.04974    88.80  LEFT      1.30523E-11  -105.91    2.41789E-10   -38.71
    0.00   310.00      -5.39   -5.67   -2.52    0.00966   -44.08  RIGHT     4.85600E-01  -131.17    4.70243E-01    49.93
    5.00   310.00      -4.70   -4.85   -1.77    0.08630   -44.49  LEFT      5.25648E-01  -133.19    5.16566E-01    36.94
   10.00   310.00      -3.14   -2.97   -0.05    0.18134   -45.59  LEFT      6.29121E-01  -139.51    6.41374E-01    19.93
   15.00   310.00      -2.12   -1.39    1.27    0.26676   -47.77  LEFT      7.07667E-01  -147.69    7.69507E-01     2.32
   20.00   310.00      -3.47   -2.12    0.27    0.33499   -50.60  LEFT      6.05628E-01  -159.82    7.07995E-01   -17.39
   25.00   310.00     -10.53   -9.27   -6.84    0.44912   -51.28  LEFT      2.68620E-01   156.72    3.10712E-01   -72.34
   30.00   310.00      -5.99   -1.61   -0.26    0.41955   -65.80  LEFT      4.53204E-01    53.16    7.50111E-01   179.46
   35.00   310.00      -3.99    0.92    2.13    0.38143   -66.64  LEFT      5.70638E-01    24.90    1.00362E+00   154.10
   40.00   310.00     -11.95   -8.85   -7.12    0.66894   -77.04  LEFT      2.28083E-01   -58.02    3.26221E-01    42.21
   45.00   310.00      -5.23    2.90    3.52    0.32757   -77.75  LEFT      4.94661E-01  -144.39    1.26177E+00   -24.92
   50.00   310.00     -11.69   -9.91   -7.70    0.72687   -65.55  LEFT      2.34994E-01   141.66    2.88659E-01  -114.60
   55.00   310.00      -7.29    4.04    4.35    0.24055   -82.82  LEFT      3.90222E-01    34.14    1.43785E+00   150.04
   60.00   310.00     -12.52   -4.05   -3.47    0.32216    78.83  LEFT      2.13686E-01   -67.08    5.66610E-01    -4.95
   65.00   310.00     -10.55    3.09    3.28    0.16024   -82.46  LEFT      2.67985E-01  -165.64    1.28970E+00   -37.30
   70.00   310.00     -13.19    4.38    4.46    0.12775    88.05  LEFT      1.97726E-01    76.47    1.49558E+00   151.79
   75.00   310.00     -14.41  -14.30  -11.34    0.59470   -45.77  LEFT      1.71900E-01   -33.05    1.74111E-01    85.46
   80.00   310.00     -18.30    5.31    5.33    0.06328   -88.93  LEFT      1.09880E-01  -140.84    1.66492E+00   -34.41
   85.00   310.00     -16.88    5.16    5.18    0.05163    86.57  LEFT      1.29346E-01   107.20    1.63539E+00   148.13
   90.00   310.00    -999.99 -191.22 -191.20    0.04974    88.79  LEFT      1.34201E-11  -100.70    2.48277E-10   -33.69
    0.00   320.00      -7.15   -4.35   -2.52    0.00966   -54.08  RIGHT     3.96584E-01  -131.40    5.47409E-01    49.76
    5.00   320.00      -6.45   -3.55   -1.75    0.07104   -54.49  LEFT      4.29799E-01  -133.15    6.00069E-01    38.26
   10.00   320.00      -4.85   -1.74   -0.01    0.14926   -55.50  LEFT      5.16950E-01  -139.20    7.38864E-01    22.69
   15.00   320.00      -3.77   -0.29    1.32    0.21706   -57.33  LEFT      5.85453E-01  -147.10    8.73235E-01     6.28
   20.00   320.00      -5.03   -1.19    0.31    0.27130   -59.41  LEFT      5.06022E-01  -158.83    7.87849E-01   -12.59
   25.00   320.00     -12.01   -8.63   -6.99    0.39278   -60.21  LEFT      2.26630E-01   159.74    3.34556E-01   -67.39
   30.00   320.00      -7.77   -0.91   -0.10    0.31907   -71.93  LEFT      3.69077E-01    54.42    8.13066E-01  -175.88
   35.00   320.00      -5.54    1.49    2.28    0.29484   -71.42  LEFT      4.77248E-01    26.04    1.07251E+00   159.13
   40.00   320.00     -13.52   -8.40   -7.23    0.53952   -82.27  LEFT      1.90560E-01   -53.61    3.43444E-01    46.33
   45.00   320.00      -6.84    3.34    3.74    0.25260   -79.82  LEFT      4.10843E-01  -142.97    1.32695E+00   -20.16
   50.00   320.00     -13.03   -9.62   -7.99    0.62800   -74.76  LEFT      2.01405E-01   145.78    2.98489E-01  -110.47
   55.00   320.00      -8.84    4.38    4.58    0.18960   -83.82  LEFT      3.26359E-01    36.02    1.49488E+00   154.58
   60.00   320.00     -13.97   -3.73   -3.34    0.26413    81.00  LEFT      1.80894E-01   -62.27    5.87950E-01    -0.81
   65.00   320.00     -11.90    3.36    3.49    0.13054   -83.56  LEFT      2.29549E-01  -162.94    1.33032E+00   -32.93
   70.00   320.00     -14.57    4.64    4.69    0.10579    88.39  LEFT      1.68741E-01    80.75    1.54134E+00   156.01
   75.00   320.00     -15.62  -14.14  -11.81    0.57921   -54.95  LEFT      1.49515E-01   -28.89    1.77394E-01    89.45
   80.00   320.00     -19.12    5.54    5.56    0.05683   -89.21  LEFT      9.99756E-02  -133.88    1.70953E+00   -30.26
   85.00   320.00     -17.33    5.38    5.41    0.04953    86.92  LEFT      1.22852E-01   109.49    1.67867E+00   152.23
   90.00   320.00    -999.99 -190.99 -190.98    0.05016    88.73  LEFT      1.39719E-11   -95.78    2.54723E-10   -29.58
    0.00   330.00      -9.70   -3.44   -2.52    0.00966   -64.08  RIGHT     2.95529E-01  -131.78    6.07946E-01    49.63
    5.00   330.00      -8.99   -2.65   -1.74    0.05350   -64.41  LEFT      3.20813E-01  -133.10    6.65969E-01    39.06
   10.00   330.00      -7.32   -0.87    0.02    0.11381   -65.15  LEFT      3.89006E-01  -138.75    8.16936E-01    24.43
   15.00   330.00      -6.14    0.51    1.36    0.16524   -66.43  LEFT      4.45654E-01  -146.27    9.57797E-01     8.86
   20.00   330.00      -7.25   -0.49    0.34    0.20869   -67.68  LEFT      3.91901E-01  -157.46    8.54060E-01    -9.30
   25.00   330.00     -14.02   -8.15   -7.15    0.33358   -68.72  LEFT      1.79814E-01   164.20    3.53561E-01   -63.78
   30.00   330.00     -10.37   -0.37    0.05    0.22862   -77.65  LEFT      2.73708E-01    56.44    8.65709E-01  -172.66
   35.00   330.00      -7.74    1.96    2.40    0.21820   -76.25  LEFT      3.70452E-01    27.54    1.13133E+00   162.77
   40.00   330.00     -15.59   -8.06   -7.35    0.41720   -87.02  LEFT      1.50091E-01   -46.64    3.57062E-01    49.23
   45.00   330.00      -9.14    3.70    3.92    0.18508   -82.41  LEFT      3.15353E-01  -140.98    1.38328E+00   -16.65
   50.00   330.00     -14.78   -9.40   -8.30    0.52171   -82.05  LEFT      1.64829E-01   151.76    3.05994E-01  -107.41
   55.00   330.00     -11.02    4.66    4.78    0.14232   -85.30  LEFT      2.53843E-01    38.66    1.54462E+00   157.99
   60.00   330.00     -15.85   -3.46   -3.22    0.19843    82.27  LEFT      1.45706E-01   -54.94    6.06321E-01     2.24
   65.00   330.00     -13.71    3.59    3.67    0.10427   -84.97  LEFT      1.86327E-01  -159.21    1.36588E+00   -29.59
   70.00   330.00     -16.37    4.87    4.90    0.08249    88.47  LEFT      1.37167E-01    87.07    1.58157E+00   159.22
   75.00   330.00     -17.17  -14.02  -12.30    0.55076   -65.30  LEFT      1.25114E-01   -23.11    1.79871E-01    92.54
   80.00   330.00     -19.96    5.74    5.75    0.05138   -89.59  LEFT      9.07297E-02  -125.00    1.74880E+00   -27.07
   85.00   330.00     -17.86    5.58    5.60    0.04638    87.21  LEFT      1.15510E-01   111.68    1.71682E+00   155.38
   90.00   330.00    -999.99 -190.80 -190.79    0.05109    88.63  LEFT      1.46906E-11   -91.39    2.60403E-10   -26.42
    0.00   340.00     -13.75   -2.86   -2.52    0.00966   -74.08  RIGHT     1.85520E-01  -132.58    6.50014E-01    49.52
    5.00   340.00     -13.01   -2.06   -1.73    0.03424   -74.27  LEFT      2.02003E-01  -133.01    7.12119E-01    39.50
   10.00   340.00     -11.18   -0.30    0.04    0.07612   -74.60  LEFT      2.49200E-01  -137.87    8.72460E-01    25.48
   15.00   340.00      -9.79    1.05    1.39    0.11251   -75.19  LEFT      2.92602E-01  -144.75    1.01883E+00    10.49
   20.00   340.00     -10.59   -0.01    0.36    0.14745   -75.60  LEFT      2.66912E-01  -155.09    9.02298E-01    -7.13
   25.00   340.00     -16.80   -7.84   -7.32    0.27189   -76.94  LEFT      1.30583E-01   171.89    3.66146E-01   -61.26
   30.00   340.00     -14.48    0.01    0.16    0.14532   -83.15  LEFT      1.70462E-01    60.79    9.04106E-01  -170.62
   35.00   340.00     -11.03    2.28    2.48    0.14861   -81.09  LEFT      2.53683E-01    30.02    1.17490E+00   165.21
   40.00   340.00     -18.27   -7.85   -7.47    0.30016    88.43  LEFT      1.10278E-01   -34.22    3.65900E-01    51.05
   45.00   340.00     -12.61    3.96    4.06    0.12338   -85.29  LEFT      2.11439E-01  -137.41    1.42545E+00   -14.27
   50.00   340.00     -16.98   -9.28   -8.60    0.41108   -88.36  LEFT      1.27876E-01   161.31    3.10340E-01  -105.37
   55.00   340.00     -14.24    4.87    4.92    0.09848   -87.09  LEFT      1.75369E-01    43.31    1.58208E+00   160.34
   60.00   340.00     -18.17   -3.27   -3.13    0.12926    82.87  LEFT      1.11495E-01   -42.63    6.20014E-01     4.24
   65.00   340.00     -16.18    3.76    3.80    0.08112   -86.59  LEFT      1.40241E-01  -153.31    1.39261E+00   -27.25
   70.00   340.00     -18.65    5.03    5.05    0.05876    88.35  LEFT      1.05463E-01    97.41    1.61216E+00   161.43
   75.00   340.00     -19.08  -13.95  -12.79    0.50100   -76.17  LEFT      1.00377E-01   -14.41    1.81185E-01    94.72
   80.00   340.00     -20.69    5.89    5.90    0.04691    89.96  LEFT      8.34479E-02  -114.02    1.77860E+00   -24.84
   85.00   340.00     -18.48    5.72    5.74    0.04260    87.45  LEFT      1.07563E-01   113.73    1.74588E+00   157.58
   90.00   340.00    -999.99 -190.66 -190.65    0.05251    88.49  LEFT      1.55460E-11   -87.69    2.64722E-10   -24.21
    0.00   350.00     -22.21   -2.56   -2.52    0.00966   -84.08  RIGHT     7.00256E-02  -135.96    6.72334E-01    49.42
    5.00   350.00     -21.39   -1.77   -1.72    0.01385   -84.09  LEFT      7.69783E-02  -132.61    7.37051E-01    39.69
   10.00   350.00     -18.95    0.00    0.06    0.03711   -83.92  LEFT      1.01952E-01  -134.57    9.03372E-01    26.01
   15.00   350.00     -16.74    1.34    1.40    0.05945   -83.74  LEFT      1.31435E-01  -139.78    1.05354E+00    11.39
   20.00   350.00     -16.46    0.25    0.34    0.08724   -83.33  LEFT      1.35696E-01  -148.56    9.29764E-01    -5.86
   25.00   350.00     -20.66   -7.72   -7.51    0.20773   -84.98  LEFT      8.37249E-02  -171.53    3.71287E-01   -59.66
   30.00   350.00     -22.72    0.21    0.24    0.06658   -88.53  LEFT      6.60642E-02    79.42    9.25737E-01  -169.58
   35.00   350.00     -16.75    2.47    2.52    0.08342   -85.95  LEFT      1.31306E-01    36.61    1.19978E+00   166.61
   40.00   350.00     -21.14   -7.77   -7.57    0.18680    83.96  LEFT      7.92559E-02    -9.73    3.69241E-01    51.87
   45.00   350.00     -18.78    4.11    4.13    0.06552   -88.33  LEFT      1.04000E-01  -126.86    1.44982E+00   -12.94
   50.00   350.00     -19.53   -9.26   -8.87    0.29795    85.88  LEFT      9.53127E-02   178.07    3.10998E-01  -104.30
   55.00   350.00     -19.52    4.99    5.00    0.05712   -89.05  LEFT      9.54261E-02    55.48    1.60377E+00   161.68
   60.00   350.00     -20.52   -3.16   -3.08    0.05858    83.04  LEFT      8.50292E-02   -20.79    6.27873E-01     5.25
   65.00   350.00     -19.61    3.86    3.87    0.06028   -88.32  LEFT      9.44305E-02  -141.79    1.40783E+00   -25.89
   70.00   350.00     -21.23    5.13    5.14    0.03496    88.11  LEFT      7.83656E-02   115.95    1.63022E+00   162.68
   75.00   350.00     -21.27  -13.96  -13.22    0.42723   -86.66  LEFT      7.80612E-02    -0.35    1.81093E-01    95.99
   80.00   350.00     -21.12    5.97    5.98    0.04322    89.46  LEFT      7.94112E-02  -101.37    1.79595E+00   -23.56
   85.00   350.00     -19.18    5.81    5.82    0.03848    87.65  LEFT      9.92558E-02   115.62    1.76299E+00   158.83
   90.00   350.00    -999.99 -190.58 -190.56    0.05438    88.33  LEFT      1.64992E-11   -84.77    2.67249E-10   -22.94
    0.00   360.00     -25.40   -2.54   -2.52    0.00966    85.92  RIGHT     4.85240E-02    57.08    6.74227E-01    49.32
    5.00   360.00     -25.05   -1.73   -1.71    0.00710    86.12  RIGHT     5.04841E-02    45.64    7.39983E-01    39.65
   10.00   360.00     -25.10    0.05    0.06    0.00246    86.84  RIGHT     5.01948E-02    28.65    9.08562E-01    26.10
   15.00   360.00     -26.83    1.39    1.40    0.00628    87.81  LEFT      4.11654E-02     2.34    1.06038E+00    11.66
   20.00   360.00     -29.57    0.30    0.30    0.02736    89.04  LEFT      3.00187E-02   -63.81    9.34907E-01    -5.35
   25.00   360.00     -24.28   -7.79   -7.69    0.14099    87.10  LEFT      5.51899E-02  -129.56    3.68443E-01   -58.89
   30.00   360.00     -23.06    0.25    0.27    0.00997    86.13  RIGHT     6.35020E-02  -161.04    9.29304E-01  -169.47
   35.00   360.00     -29.70    2.50    2.50    0.02013    89.20  LEFT      2.95497E-02   111.92    1.20405E+00   167.05
   40.00   360.00     -21.79   -7.83   -7.66    0.07578    79.49  LEFT      7.35125E-02    28.70    3.66793E-01    51.72
   45.00   360.00     -27.35    4.14    4.14    0.00941    88.57  LEFT      3.87727E-02   -33.29    1.45437E+00   -12.59
   50.00   360.00     -21.42   -9.35   -9.09    0.18375    80.42  LEFT      7.67344E-02  -153.42    3.07747E-01  -104.20
   55.00   360.00     -26.89    5.01    5.01    0.01698    88.92  LEFT      4.08646E-02   120.09    1.60772E+00   162.03
   60.00   360.00     -21.27   -3.14   -3.07    0.01297    82.97  RIGHT     7.80516E-02    11.38    6.29301E-01     5.28
   65.00   360.00     -23.93    3.87    3.88    0.04070    89.90  LEFT      5.74380E-02  -112.98    1.40998E+00   -25.49
   70.00   360.00     -22.80    5.15    5.16    0.01113    87.80  LEFT      6.54282E-02   146.80    1.63409E+00   162.97
   75.00   360.00     -23.12  -14.04  -13.53    0.33446    83.82  LEFT      6.30585E-02    22.20    1.79478E-01    96.32
   80.00   360.00     -21.12    5.99    5.99    0.04000    88.93  LEFT      7.93766E-02   -88.31    1.79912E+00   -23.21
   85.00   360.00     -19.95    5.83    5.84    0.03426    87.80  LEFT      9.08258E-02   117.29    1.76650E+00   159.15
   90.00   360.00    -999.99 -190.56 -190.54    0.05659    88.12  LEFT      1.75069E-11   -82.63    2.67732E-10   -22.60


   AVERAGE POWER GAIN= 1.55545E+00       SOLID ANGLE USED IN AVERAGING=( 2.0000)*PI STERADIANS.








 ***** DATA CARD NO.  5   EN   0    19    37  1003  0.00000E+00  0.00000E+00  5.00000E+00  1.00000E+01  0.00000E+00  0.00000E+00

 RUN TIME =     0.141
