1



                                 *********************************************

                                    NUMERICAL ELECTROMAGNETICS CODE (NEC-2D)

                                 *********************************************




                                     - - - - COMMENTS - - - -


                                                                                                     
                                                                                                     




                                 - - - STRUCTURE SPECIFICATION - - -

                                     COORDINATES MUST BE INPUT IN
                                     METERS OR BE SCALED TO METERS
                                     BEFORE STRUCTURE INPUT IS ENDED


  WIRE                                                                               NO. OF    FIRST  LAST     TAG
  NO.        X1         Y1         Z1          X2         Y2         Z2      RADIUS   SEG.     SEG.   SEG.     NO.
     1   -0.13600    0.00000    0.12000    -0.03100    0.00000    0.12000    0.00250      2        1     2       1
     2   -0.03100    0.00000    0.12000     0.02100    0.00000    0.12000    0.00250      1        3     3     999
     3    0.02100    0.00000    0.12000     0.13600    0.00000    0.12000    0.00250      2        4     5       1
     4   -0.13300   -0.33000    0.12600    -0.13300   -0.33000    0.96400    0.00250     17        6    22       3
     5    0.13300   -0.33000    0.12600     0.13300   -0.33000    0.96400    0.00250     17       23    39       3
     6   -0.13300   -0.33000    0.12600     0.13300   -0.33000    0.12600    0.00250      6       40    45       3
     7   -0.13300   -0.33000    0.96400     0.00000   -0.33000    0.96400    0.00250      1       46    46       3
     8    0.00000   -0.33000    0.96400     0.13300   -0.33000    0.96400    0.00250      1       47    47       3
     9   -0.13600    0.00000    0.00000    -0.13600    0.00000    0.12000    0.00250      1       48    48       2
    10    0.13600    0.00000    0.00000     0.13600    0.00000    0.12000    0.00250      1       49    49       2
    11   -0.13600    0.00000    0.00000     0.13600    0.00000    0.00000    0.00250      6       50    55       2
    12   -0.13600    0.00000    0.97000     0.00000    0.00000    0.97000    0.00250      1       56    56       2
    13   -0.13600    0.00000    0.12000    -0.13600    0.00000    0.97000    0.00250      1       57    57       2
    14    0.13600    0.00000    0.12000     0.13600    0.00000    0.97000    0.00250      1       58    58       2
    15    0.00000    0.00000    0.97000     0.13600    0.00000    0.97000    0.00250      1       59    59       2
    16    0.00000    0.00000    0.97000     0.00000   -0.33000    0.96400    0.00050      7       60    66       4
      THE STRUCTURE HAS BEEN MOVED, MOVE DATA CARD IS -
        0    0   0.00000   0.00000   0.00000   0.00000   0.00000   8.00000   0.00000

   GROUND PLANE SPECIFIED.

   TOTAL SEGMENTS USED=   66     NO. SEG. IN A SYMMETRIC CELL=   66     SYMMETRY FLAG=  0


         - MULTIPLE WIRE JUNCTIONS -
 JUNCTION    SEGMENTS  (- FOR END 1, + FOR END 2)
     1        -1   48  -57
     2         5   49  -58
     3        46  -47   66
     4        56  -59  -60




                                 - - - - SEGMENTATION DATA - - - -

                                        COORDINATES IN METERS

                         I+ AND I- INDICATE THE SEGMENTS BEFORE AND AFTER I


  SEG.   COORDINATES OF SEG. CENTER     SEG.     ORIENTATION ANGLES    WIRE    CONNECTION DATA   TAG
  NO.       X         Y         Z       LENGTH     ALPHA     BETA      RADIUS    I-   I    I+    NO.
     1  -0.10975   0.00000   8.12000   0.05250    0.00000   0.00000   0.00250    48    1    2      1
     2  -0.05725   0.00000   8.12000   0.05250    0.00000   0.00000   0.00250     1    2    3      1
     3  -0.00500   0.00000   8.12000   0.05200    0.00000   0.00000   0.00250     2    3    4    999
     4   0.04975   0.00000   8.12000   0.05750    0.00000   0.00000   0.00250     3    4    5      1
     5   0.10725   0.00000   8.12000   0.05750    0.00000   0.00000   0.00250     4    5  -49      1
     6  -0.13300  -0.33000   8.15065   0.04929   90.00000   0.00000   0.00250   -40    6    7      3
     7  -0.13300  -0.33000   8.19994   0.04929   90.00000   0.00000   0.00250     6    7    8      3
     8  -0.13300  -0.33000   8.24924   0.04929   90.00000   0.00000   0.00250     7    8    9      3
     9  -0.13300  -0.33000   8.29853   0.04929   90.00000   0.00000   0.00250     8    9   10      3
    10  -0.13300  -0.33000   8.34782   0.04929   90.00000   0.00000   0.00250     9   10   11      3
    11  -0.13300  -0.33000   8.39712   0.04929   90.00000   0.00000   0.00250    10   11   12      3
    12  -0.13300  -0.33000   8.44641   0.04929   90.00000   0.00000   0.00250    11   12   13      3
    13  -0.13300  -0.33000   8.49571   0.04929   90.00000   0.00000   0.00250    12   13   14      3
    14  -0.13300  -0.33000   8.54500   0.04929   90.00000   0.00000   0.00250    13   14   15      3
    15  -0.13300  -0.33000   8.59429   0.04929   90.00000   0.00000   0.00250    14   15   16      3
    16  -0.13300  -0.33000   8.64359   0.04929   90.00000   0.00000   0.00250    15   16   17      3
    17  -0.13300  -0.33000   8.69288   0.04929   90.00000   0.00000   0.00250    16   17   18      3
    18  -0.13300  -0.33000   8.74218   0.04929   90.00000   0.00000   0.00250    17   18   19      3
    19  -0.13300  -0.33000   8.79147   0.04929   90.00000   0.00000   0.00250    18   19   20      3
    20  -0.13300  -0.33000   8.84076   0.04929   90.00000   0.00000   0.00250    19   20   21      3
    21  -0.13300  -0.33000   8.89006   0.04929   90.00000   0.00000   0.00250    20   21   22      3
    22  -0.13300  -0.33000   8.93935   0.04929   90.00000   0.00000   0.00250    21   22   46      3
    23   0.13300  -0.33000   8.15065   0.04929   90.00000   0.00000   0.00250    45   23   24      3
    24   0.13300  -0.33000   8.19994   0.04929   90.00000   0.00000   0.00250    23   24   25      3
    25   0.13300  -0.33000   8.24924   0.04929   90.00000   0.00000   0.00250    24   25   26      3
    26   0.13300  -0.33000   8.29853   0.04929   90.00000   0.00000   0.00250    25   26   27      3
    27   0.13300  -0.33000   8.34782   0.04929   90.00000   0.00000   0.00250    26   27   28      3
    28   0.13300  -0.33000   8.39712   0.04929   90.00000   0.00000   0.00250    27   28   29      3
    29   0.13300  -0.33000   8.44641   0.04929   90.00000   0.00000   0.00250    28   29   30      3
    30   0.13300  -0.33000   8.49571   0.04929   90.00000   0.00000   0.00250    29   30   31      3
    31   0.13300  -0.33000   8.54500   0.04929   90.00000   0.00000   0.00250    30   31   32      3
    32   0.13300  -0.33000   8.59429   0.04929   90.00000   0.00000   0.00250    31   32   33      3
    33   0.13300  -0.33000   8.64359   0.04929   90.00000   0.00000   0.00250    32   33   34      3
    34   0.13300  -0.33000   8.69288   0.04929   90.00000   0.00000   0.00250    33   34   35      3
    35   0.13300  -0.33000   8.74218   0.04929   90.00000   0.00000   0.00250    34   35   36      3
    36   0.13300  -0.33000   8.79147   0.04929   90.00000   0.00000   0.00250    35   36   37      3
    37   0.13300  -0.33000   8.84076   0.04929   90.00000   0.00000   0.00250    36   37   38      3
    38   0.13300  -0.33000   8.89006   0.04929   90.00000   0.00000   0.00250    37   38   39      3
    39   0.13300  -0.33000   8.93935   0.04929   90.00000   0.00000   0.00250    38   39  -47      3
    40  -0.11083  -0.33000   8.12600   0.04433    0.00000   0.00000   0.00250    -6   40   41      3
    41  -0.06650  -0.33000   8.12600   0.04433    0.00000   0.00000   0.00250    40   41   42      3
    42  -0.02217  -0.33000   8.12600   0.04433    0.00000   0.00000   0.00250    41   42   43      3
    43   0.02217  -0.33000   8.12600   0.04433    0.00000   0.00000   0.00250    42   43   44      3
    44   0.06650  -0.33000   8.12600   0.04433    0.00000   0.00000   0.00250    43   44   45      3
    45   0.11083  -0.33000   8.12600   0.04433    0.00000   0.00000   0.00250    44   45   23      3
    46  -0.06650  -0.33000   8.96400   0.13300    0.00000   0.00000   0.00250    22   46   47      3
    47   0.06650  -0.33000   8.96400   0.13300    0.00000   0.00000   0.00250    66   47  -39      3
    48  -0.13600   0.00000   8.06000   0.12000   90.00000   0.00000   0.00250   -50   48   57      2
    49   0.13600   0.00000   8.06000   0.12000   90.00000   0.00000   0.00250    55   49   58      2
    50  -0.11333   0.00000   8.00000   0.04533    0.00000   0.00000   0.00250   -48   50   51      2
    51  -0.06800   0.00000   8.00000   0.04533    0.00000   0.00000   0.00250    50   51   52      2
    52  -0.02267   0.00000   8.00000   0.04533    0.00000   0.00000   0.00250    51   52   53      2
    53   0.02267   0.00000   8.00000   0.04533    0.00000   0.00000   0.00250    52   53   54      2
    54   0.06800   0.00000   8.00000   0.04533    0.00000   0.00000   0.00250    53   54   55      2
    55   0.11333   0.00000   8.00000   0.04533    0.00000   0.00000   0.00250    54   55   49      2
    56  -0.06800   0.00000   8.97000   0.13600    0.00000   0.00000   0.00250    57   56   59      2
    57  -0.13600   0.00000   8.54500   0.85000   90.00000   0.00000   0.00250    -1   57   56      2
    58   0.13600   0.00000   8.54500   0.85000   90.00000   0.00000   0.00250     5   58  -59      2
    59   0.06800   0.00000   8.97000   0.13600    0.00000   0.00000   0.00250   -60   59  -58      2
    60   0.00000  -0.02357   8.96957   0.04715   -1.04163 -90.00000   0.00050    56   60   61      4
    61   0.00000  -0.07071   8.96871   0.04715   -1.04163 -90.00000   0.00050    60   61   62      4
    62   0.00000  -0.11786   8.96786   0.04715   -1.04163 -90.00000   0.00050    61   62   63      4
    63   0.00000  -0.16500   8.96700   0.04715   -1.04163 -90.00000   0.00050    62   63   64      4
    64   0.00000  -0.21214   8.96614   0.04715   -1.04163 -90.00000   0.00050    63   64   65      4
    65   0.00000  -0.25929   8.96529   0.04715   -1.04163 -90.00000   0.00050    64   65   66      4
    66   0.00000  -0.30643   8.96443   0.04715   -1.04163 -90.00000   0.00050    65   66  -46      4






 ***** DATA CARD NO.  1   GN   2     0     0     0  1.10000E+01  1.00000E-02  0.00000E+00  0.00000E+00  0.00000E+00  0.00000E+00
 ***** DATA CARD NO.  2   EX   0   999     1     0  1.00000E+00  0.00000E+00  0.00000E+00  0.00000E+00  0.00000E+00  0.00000E+00
 ***** DATA CARD NO.  3   FR   0     1     0     0  1.44200E+02  0.00000E+00  0.00000E+00  0.00000E+00  0.00000E+00  0.00000E+00
 ***** DATA CARD NO.  4   RP   0    19    37  1003  0.00000E+00  9.00000E+01  5.00000E+00  1.00000E+01  0.00000E+00  0.00000E+00




                                 - - - - - - FREQUENCY - - - - - -

                                    FREQUENCY= 1.4420E+02 MHZ
                                    WAVELENGTH= 2.0791E+00 METERS




                    APPROXIMATE INTEGRATION EMPLOYED FOR SEGMENTS MORE THAN   1.000 WAVELENGTHS APART



                               - - - STRUCTURE IMPEDANCE LOADING - - -

                                   THIS STRUCTURE IS NOT LOADED



                                  - - - ANTENNA ENVIRONMENT - - -

                                        FINITE GROUND.  SOMMERFELD SOLUTION
                                        RELATIVE DIELECTRIC CONST.= 11.000
                                        CONDUCTIVITY= 1.000E-02 MHOS/METER
                                        COMPLEX DIELECTRIC CONSTANT= 1.10000E+01-1.24660E+00



                                - - - MATRIX TIMING - - -

                        FILL=    0.016 SEC.,  FACTOR=    0.016 SEC.



                                          - - - ANTENNA INPUT PARAMETERS - - -

   TAG   SEG.    VOLTAGE (VOLTS)         CURRENT (AMPS)         IMPEDANCE (OHMS)        ADMITTANCE (MHOS)      POWER
   NO.   NO.    REAL        IMAG.       REAL        IMAG.       REAL        IMAG.       REAL        IMAG.     (WATTS)
   999     3 1.00000E+00 0.00000E+00 1.85237E-02 2.64054E-03 5.29098E+01-7.54228E+00 1.85237E-02 2.64054E-03 9.26183E-03



                             - - - CURRENTS AND LOCATION - - -

                                 DISTANCES IN WAVELENGTHS


  SEG.  TAG    COORD. OF SEG. CENTER     SEG.            - - - CURRENT (AMPS) - - -
  NO.   NO.     X        Y        Z      LENGTH     REAL        IMAG.       MAG.        PHASE
     1    1  -0.0528   0.0000   3.9056  0.02525   1.7687E-02  1.9477E-03  1.7794E-02    6.284
     2    1  -0.0275   0.0000   3.9056  0.02525   1.8284E-02  2.2985E-03  1.8428E-02    7.165
     3  999  -0.0024   0.0000   3.9056  0.02501   1.8524E-02  2.6405E-03  1.8711E-02    8.113
     4    1   0.0239   0.0000   3.9056  0.02766   1.8350E-02  2.2814E-03  1.8491E-02    7.087
     5    1   0.0516   0.0000   3.9056  0.02766   1.7741E-02  1.9000E-03  1.7843E-02    6.113
     6    3  -0.0640  -0.1587   3.9204  0.02371   2.7080E-02 -9.9484E-03  2.8849E-02  -20.172
     7    3  -0.0640  -0.1587   3.9441  0.02371   2.5147E-02 -9.2352E-03  2.6789E-02  -20.165
     8    3  -0.0640  -0.1587   3.9678  0.02371   2.2680E-02 -8.3278E-03  2.4161E-02  -20.162
     9    3  -0.0640  -0.1587   3.9915  0.02371   1.9726E-02 -7.2432E-03  2.1014E-02  -20.162
    10    3  -0.0640  -0.1587   4.0152  0.02371   1.6346E-02 -6.0033E-03  1.7414E-02  -20.166
    11    3  -0.0640  -0.1587   4.0389  0.02371   1.2611E-02 -4.6341E-03  1.3436E-02  -20.176
    12    3  -0.0640  -0.1587   4.0626  0.02371   8.6022E-03 -3.1650E-03  9.1660E-03  -20.200
    13    3  -0.0640  -0.1587   4.0863  0.02371   4.4064E-03 -1.6277E-03  4.6974E-03  -20.273
    14    3  -0.0640  -0.1587   4.1100  0.02371   1.1552E-04 -5.5563E-05  1.2819E-04  -25.687
    15    3  -0.0640  -0.1587   4.1337  0.02371  -4.1764E-03  1.5171E-03  4.4434E-03  160.036
    16    3  -0.0640  -0.1587   4.1575  0.02371  -8.3752E-03  3.0561E-03  8.9154E-03  159.953
    17    3  -0.0640  -0.1587   4.1812  0.02371  -1.2389E-02  4.5282E-03  1.3191E-02  159.923
    18    3  -0.0640  -0.1587   4.2049  0.02371  -1.6130E-02  5.9015E-03  1.7176E-02  159.904
    19    3  -0.0640  -0.1587   4.2286  0.02371  -1.9517E-02  7.1467E-03  2.0785E-02  159.888
    20    3  -0.0640  -0.1587   4.2523  0.02371  -2.2478E-02  8.2380E-03  2.3940E-02  159.873
    21    3  -0.0640  -0.1587   4.2760  0.02371  -2.4952E-02  9.1531E-03  2.6578E-02  159.856
    22    3  -0.0640  -0.1587   4.2997  0.02371  -2.6891E-02  9.8755E-03  2.8647E-02  159.835
    23    3   0.0640  -0.1587   3.9204  0.02371  -2.7094E-02  9.9651E-03  2.8869E-02  159.807
    24    3   0.0640  -0.1587   3.9441  0.02371  -2.5166E-02  9.2561E-03  2.6814E-02  159.806
    25    3   0.0640  -0.1587   3.9678  0.02371  -2.2702E-02  8.3523E-03  2.4190E-02  159.801
    26    3   0.0640  -0.1587   3.9915  0.02371  -1.9751E-02  7.2704E-03  2.1047E-02  159.792
    27    3   0.0640  -0.1587   4.0152  0.02371  -1.6374E-02  6.0322E-03  1.7449E-02  159.775
    28    3   0.0640  -0.1587   4.0389  0.02371  -1.2641E-02  4.6639E-03  1.3473E-02  159.748
    29    3   0.0640  -0.1587   4.0626  0.02371  -8.6328E-03  3.1947E-03  9.2050E-03  159.692
    30    3   0.0640  -0.1587   4.0863  0.02371  -4.4376E-03  1.6563E-03  4.7367E-03  159.532
    31    3   0.0640  -0.1587   4.1100  0.02371  -1.4671E-04  8.2339E-05  1.6824E-04  150.697
    32    3   0.0640  -0.1587   4.1337  0.02371   4.1458E-03 -1.4931E-03  4.4065E-03  -19.806
    33    3   0.0640  -0.1587   4.1575  0.02371   8.3459E-03 -3.0356E-03  8.8808E-03  -19.988
    34    3   0.0640  -0.1587   4.1812  0.02371   1.2361E-02 -4.5118E-03  1.3159E-02  -20.052
    35    3   0.0640  -0.1587   4.2049  0.02371   1.6105E-02 -5.8899E-03  1.7148E-02  -20.089
    36    3   0.0640  -0.1587   4.2286  0.02371   1.9495E-02 -7.1404E-03  2.0761E-02  -20.116
    37    3   0.0640  -0.1587   4.2523  0.02371   2.2459E-02 -8.2371E-03  2.3922E-02  -20.141
    38    3   0.0640  -0.1587   4.2760  0.02371   2.4936E-02 -9.1580E-03  2.6565E-02  -20.166
    39    3   0.0640  -0.1587   4.2997  0.02371   2.6879E-02 -9.8863E-03  2.8640E-02  -20.194
    40    3  -0.0533  -0.1587   3.9085  0.02132  -2.8405E-02  1.0441E-02  3.0263E-02  159.819
    41    3  -0.0320  -0.1587   3.9085  0.02132  -2.9251E-02  1.0753E-02  3.1165E-02  159.816
    42    3  -0.0107  -0.1587   3.9085  0.02132  -2.9682E-02  1.0913E-02  3.1625E-02  159.814
    43    3   0.0107  -0.1587   3.9085  0.02132  -2.9684E-02  1.0915E-02  3.1627E-02  159.811
    44    3   0.0320  -0.1587   3.9085  0.02132  -2.9257E-02  1.0761E-02  3.1173E-02  159.807
    45    3   0.0533  -0.1587   3.9085  0.02132  -2.8415E-02  1.0453E-02  3.0277E-02  159.804
    46    3  -0.0320  -0.1587   4.3116  0.06397  -2.9056E-02  1.0692E-02  3.0961E-02  159.798
    47    3   0.0320  -0.1587   4.3116  0.06397  -2.9052E-02  1.0713E-02  3.0964E-02  159.758
    48    2  -0.0654   0.0000   3.8768  0.05772  -6.1385E-03 -3.3102E-03  6.9741E-03 -151.664
    49    2   0.0654   0.0000   3.8768  0.05772   6.1266E-03  3.3130E-03  6.9650E-03   28.402
    50    2  -0.0545   0.0000   3.8479  0.02180   7.1037E-03  3.5663E-03  7.9487E-03   26.658
    51    2  -0.0327   0.0000   3.8479  0.02180   7.4379E-03  3.6485E-03  8.2846E-03   26.129
    52    2  -0.0109   0.0000   3.8479  0.02180   7.6033E-03  3.6885E-03  8.4507E-03   25.879
    53    2   0.0109   0.0000   3.8479  0.02180   7.6018E-03  3.6896E-03  8.4499E-03   25.890
    54    2   0.0327   0.0000   3.8479  0.02180   7.4335E-03  3.6513E-03  8.2819E-03   26.160
    55    2   0.0545   0.0000   3.8479  0.02180   7.0966E-03  3.5696E-03  7.9438E-03   26.703
    56    2  -0.0327   0.0000   4.3145  0.06541   2.3195E-02  5.1017E-03  2.3750E-02   12.404
    57    2  -0.0654   0.0000   4.1100  0.40884  -1.5980E-03  8.6925E-05  1.6004E-03  176.886
    58    2   0.0654   0.0000   4.1100  0.40884   1.5765E-03 -1.1433E-04  1.5807E-03   -4.148
    59    2   0.0327   0.0000   4.3145  0.06541   2.3210E-02  5.0741E-03  2.3758E-02   12.332
    60    4   0.0000  -0.0113   4.3143  0.02268  -1.0604E-05  3.1420E-05  3.3161E-05  108.649
    61    4   0.0000  -0.0340   4.3138  0.02268  -9.2504E-06  3.1892E-05  3.3207E-05  106.175
    62    4   0.0000  -0.0567   4.3134  0.02268  -7.6796E-06  3.1956E-05  3.2866E-05  103.513
    63    4   0.0000  -0.0794   4.3130  0.02268  -5.9874E-06  3.1582E-05  3.2145E-05  100.735
    64    4   0.0000  -0.1020   4.3126  0.02268  -4.2378E-06  3.0781E-05  3.1072E-05   97.839
    65    4   0.0000  -0.1247   4.3122  0.02268  -2.4980E-06  2.9590E-05  2.9695E-05   94.825
    66    4   0.0000  -0.1474   4.3118  0.02268  -8.8394E-07  2.8115E-05  2.8129E-05   91.801



                                        - - - POWER BUDGET - - -

                                           INPUT POWER   = 9.2618E-03 WATTS
                                           RADIATED POWER= 9.2618E-03 WATTS
                                           STRUCTURE LOSS= 0.0000E+00 WATTS
                                           NETWORK LOSS  = 0.0000E+00 WATTS
                                           EFFICIENCY    = 100.00 PERCENT



                                                - - - RADIATION PATTERNS - - -

  - - ANGLES - -           - POWER GAINS -       - - - POLARIZATION - - -    - - - E(THETA) - - -    - - - E(PHI) - - -
  THETA     PHI        VERT.   HOR.    TOTAL      AXIAL     TILT   SENSE     MAGNITUDE    PHASE      MAGNITUDE    PHASE 
 DEGREES  DEGREES       DB      DB      DB        RATIO     DEG.              VOLTS/M    DEGREES      VOLTS/M    DEGREES
    0.00    90.00     -54.97   -9.55   -9.55    0.00147    89.71  LEFT      1.32907E-03   -72.74    2.48254E-01   -56.81
    5.00    90.00     -53.04  -10.02  -10.02    0.00092    89.60  LEFT      1.66017E-03   -74.52    2.35153E-01   -67.04
   10.00    90.00     -51.27  -14.26  -14.26    0.00063    89.19  RIGHT     2.03544E-03   -82.30    1.44256E-01   -84.87
   15.00    90.00     -50.66  -16.03  -16.03    0.01402   -89.30  RIGHT     2.18359E-03   -96.35    1.17683E-01   132.75
   20.00    90.00     -52.95   -3.57   -3.57    0.00253   -89.87  RIGHT     1.67836E-03  -125.22    4.93833E-01   102.95
   25.00    90.00     -54.58    0.09    0.09    0.00161    89.95  RIGHT     1.39147E-03   150.40    7.53059E-01    89.50
   30.00    90.00     -49.21   -6.87   -6.87    0.00404    89.63  RIGHT     2.58009E-03    93.72    3.37957E-01    61.77
   35.00    90.00     -51.08    1.36    1.36    0.00157   -89.90  RIGHT     2.08067E-03    48.46    8.71848E-01   -90.27
   40.00    90.00     -51.24    3.10    3.10    0.00137    89.92  RIGHT     2.04416E-03   -63.77    1.06466E+00  -109.22
   45.00    90.00     -49.95    2.16    2.16    0.00132   -89.88  RIGHT     2.37075E-03  -124.66    9.55908E-01    87.59
   50.00    90.00     -51.41    5.69    5.69    0.00106    89.95  RIGHT     2.00338E-03   114.56    1.43470E+00    64.97
   55.00    90.00     -51.43    7.33    7.33    0.00075   -89.95  RIGHT     1.99888E-03    35.54    1.73361E+00  -103.96
   60.00    90.00     -50.78    0.98    0.98    0.00168    89.89  RIGHT     2.15442E-03   -91.64    8.33903E-01  -132.27
   65.00    90.00     -53.34   11.32   11.32    0.00058   -90.00  RIGHT     1.60491E-03   159.44    2.74399E+00    65.86
   70.00    90.00     -52.40    7.42    7.42    0.00052   -89.95  RIGHT     1.78805E-03    41.83    1.75044E+00  -107.57
   75.00    90.00     -53.68    4.65    4.65    0.00081    89.95  RIGHT     1.54279E-03   -83.41    1.27215E+00  -125.08
   80.00    90.00     -52.51   13.28   13.28    0.00051   -90.00  RIGHT     1.76428E-03   153.74    3.43923E+00    62.97
   85.00    90.00     -52.93   11.82   11.82    0.00053   -89.99  RIGHT     1.68256E-03    -2.45    2.90469E+00  -115.69
   90.00    90.00    -999.99 -183.33 -183.33    0.00069    90.00  RIGHT     3.50923E-13   151.69    5.07666E-10    62.61
    0.00   100.00     -24.50   -9.69   -9.55    0.00147    79.71  LEFT      4.43689E-02   -57.27    2.44260E-01   -56.80
    5.00   100.00     -25.02  -10.17  -10.03    0.00067    79.75  RIGHT     4.18014E-02   -66.68    2.31178E-01   -66.90
   10.00   100.00     -29.30  -14.42  -14.28    0.00860    79.80  RIGHT     2.55291E-02   -81.73    1.41666E-01   -84.56
   15.00   100.00     -34.20  -16.23  -16.16    0.01350    82.85  RIGHT     1.45283E-02   139.09    1.15079E-01   132.85
   20.00   100.00     -21.63   -3.75   -3.68    0.00706    82.74  RIGHT     6.17544E-02   106.42    4.83727E-01   103.20
   25.00   100.00     -18.98   -0.09   -0.04    0.00888    83.53  RIGHT     8.38223E-02    94.37    7.37301E-01    89.84
   30.00   100.00     -27.25   -7.06   -7.02    0.01274    84.46  RIGHT     3.23441E-02    69.81    3.30449E-01    62.26
   35.00   100.00     -20.82    1.17    1.20    0.00566    85.46  RIGHT     6.78370E-02   -85.83    8.52473E-01   -89.93
   40.00   100.00     -20.84    2.90    2.92    0.00349    86.28  RIGHT     6.76838E-02  -105.70    1.04074E+00  -108.79
   45.00   100.00     -23.03    1.96    1.98    0.00551    86.79  RIGHT     5.25809E-02    93.59    9.33993E-01    87.96
   50.00   100.00     -22.25    5.49    5.50    0.00188    87.65  LEFT      5.75200E-02    62.80    1.40172E+00    65.44
   55.00   100.00     -21.95    7.13    7.14    0.00340    88.00  RIGHT     5.95279E-02   -97.97    1.69356E+00  -103.53
   60.00   100.00     -30.09    0.77    0.77    0.01731    88.69  LEFT      2.33157E-02  -168.93    8.14149E-01  -131.73
   65.00   100.00     -24.40   11.12   11.12    0.00251    89.05  LEFT      4.49174E-02    57.74    2.68011E+00    66.35
   70.00   100.00     -29.11    7.21    7.21    0.00469    89.17  RIGHT     2.61096E-02   -89.22    1.70955E+00  -107.10
   75.00   100.00     -31.03    4.44    4.44    0.01682    89.95  LEFT      2.09193E-02   148.51    1.24224E+00  -124.54
   80.00   100.00     -31.56   13.08   13.08    0.00563   -89.91  LEFT      1.97000E-02   -42.90    3.35872E+00    63.49
   85.00   100.00     -32.78   11.61   11.61    0.00360   -89.72  LEFT      1.71130E-02   101.50    2.83667E+00  -115.18
   90.00   100.00    -999.99 -183.54 -183.54    0.00865   -89.44  LEFT      6.48464E-12   -75.49    4.95772E-10    63.13
    0.00   110.00     -18.74  -10.10   -9.55    0.00147    69.71  LEFT      8.61094E-02   -57.04    2.32845E-01   -56.78
    5.00   110.00     -19.33  -10.60  -10.06    0.00205    69.88  RIGHT     8.05352E-02   -66.13    2.19879E-01   -66.49
   10.00   110.00     -23.79  -14.87  -14.35    0.01566    70.31  RIGHT     4.81779E-02   -80.80    1.34516E-01   -83.63
   15.00   110.00     -28.20  -16.84  -16.53    0.01353    74.89  RIGHT     2.89948E-02   136.38    1.07221E-01   133.30
   20.00   110.00     -15.82   -4.30   -4.01    0.01169    75.15  RIGHT     1.20546E-01   106.67    4.54055E-01   103.97
   25.00   110.00     -13.27   -0.65   -0.42    0.01660    76.87  RIGHT     1.61680E-01    95.15    6.91543E-01    90.85
   30.00   110.00     -21.81   -7.65   -7.48    0.02367    79.00  RIGHT     6.05302E-02    70.97    3.09037E-01    63.76
   35.00   110.00     -15.06    0.57    0.69    0.01008    80.62  RIGHT     1.31678E-01   -85.33    7.95921E-01   -88.92
   40.00   110.00     -15.23    2.30    2.38    0.00676    82.44  RIGHT     1.29120E-01  -104.51    9.71493E-01  -107.47
   45.00   110.00     -17.27    1.35    1.40    0.00977    83.34  RIGHT     1.02020E-01    93.91    8.70049E-01    89.06
   50.00   110.00     -16.67    4.87    4.90    0.00396    85.22  LEFT      1.09325E-01    64.12    1.30618E+00    66.85
   55.00   110.00     -16.25    6.51    6.53    0.00620    85.85  RIGHT     1.14720E-01   -97.31    1.57702E+00  -102.23
   60.00   110.00     -24.73    0.14    0.15    0.03535    87.43  LEFT      4.32418E-02  -168.43    7.57100E-01  -130.09
   65.00   110.00     -18.80   10.49   10.50    0.00544    88.06  LEFT      8.55696E-02    58.67    2.49460E+00    67.81
   70.00   110.00     -23.51    6.59    6.59    0.00877    88.28  RIGHT     4.97757E-02   -89.39    1.59059E+00  -105.69
   75.00   110.00     -25.48    3.81    3.82    0.03432    89.96  LEFT      3.96687E-02   148.25    1.15554E+00  -122.93
   80.00   110.00     -25.60   12.45   12.45    0.01189   -89.78  LEFT      3.91137E-02   -43.23    3.12485E+00    65.03
   85.00   110.00     -26.64   10.98   10.98    0.00794   -89.40  LEFT      3.47114E-02   103.52    2.63902E+00  -113.64
   90.00   110.00    -999.99 -184.17 -184.16    0.01821   -88.79  LEFT      1.28372E-11   -74.42    4.61219E-10    64.69
    0.00   120.00     -15.49  -10.82   -9.55    0.00147    59.71  LEFT      1.25234E-01   -56.95    2.14355E-01   -56.76
    5.00   120.00     -16.12  -11.35  -10.10    0.00306    59.98  RIGHT     1.16533E-01   -65.43    2.01694E-01   -65.83
   10.00   120.00     -20.64  -15.64  -14.44    0.02106    60.67  RIGHT     6.92353E-02   -79.27    1.23132E-01   -82.10
   15.00   120.00     -25.21  -17.90  -17.16    0.01438    66.69  RIGHT     4.08963E-02   136.36    9.48512E-02   134.10
   20.00   120.00     -12.75   -5.25   -4.54    0.01639    67.15  RIGHT     1.71674E-01   107.87    4.07120E-01   105.25
   25.00   120.00     -10.22   -1.61   -1.05    0.02507    69.70  RIGHT     2.29660E-01    96.96    6.19381E-01    92.55
   30.00   120.00     -18.82   -8.64   -8.24    0.03900    72.92  RIGHT     8.53561E-02    74.23    2.75577E-01    66.31
   35.00   120.00     -12.10   -0.46   -0.17    0.01515    75.35  RIGHT     1.85136E-01   -83.68    7.07054E-01   -87.22
   40.00   120.00     -12.26    1.27    1.46    0.01253    78.14  RIGHT     1.81589E-01  -101.72    8.62902E-01  -105.28
   45.00   120.00     -14.40    0.28    0.43    0.01415    79.58  RIGHT     1.41950E-01    95.43    7.69744E-01    90.88
   50.00   120.00     -13.77    3.82    3.89    0.00409    82.48  LEFT      1.52652E-01    67.39    1.15649E+00    69.20
   55.00   120.00     -13.41    5.44    5.50    0.00933    83.51  RIGHT     1.59061E-01   -95.33    1.39427E+00  -100.09
   60.00   120.00     -22.23   -0.95   -0.92    0.05119    86.02  LEFT      5.76677E-02  -163.93    6.67937E-01  -127.36
   65.00   120.00     -16.04    9.42    9.43    0.00803    86.98  LEFT      1.17509E-01    61.54    2.20373E+00    70.23
   70.00   120.00     -20.97    5.50    5.51    0.01262    87.38  RIGHT     6.66229E-02   -87.90    1.40400E+00  -103.37
   75.00   120.00     -23.04    2.72    2.74    0.05153    90.00  LEFT      5.25410E-02   149.82    1.01972E+00  -120.26
   80.00   120.00     -22.64   11.37   11.37    0.01843   -89.56  LEFT      5.50116E-02   -44.91    2.75809E+00    67.57
   85.00   120.00     -23.06    9.90    9.90    0.01278   -88.94  LEFT      5.23861E-02   103.51    2.32900E+00  -111.11
   90.00   120.00    -999.99 -185.25 -185.24    0.02832   -87.97  LEFT      1.84892E-11   -74.12    4.07029E-10    67.26
    0.00   130.00     -13.33  -11.90   -9.55    0.00147    49.71  LEFT      1.60554E-01   -56.91    1.89352E-01   -56.74
    5.00   130.00     -14.00  -12.47  -10.16    0.00355    50.03  RIGHT     1.48610E-01   -64.52    1.77319E-01   -64.93
   10.00   130.00     -18.55  -16.78  -14.56    0.02405    50.82  RIGHT     8.80582E-02   -77.18    1.08008E-01   -80.00
   15.00   130.00     -23.60  -19.48  -18.06    0.01637    58.10  RIGHT     4.92556E-02   137.31    7.91182E-02   135.22
   20.00   130.00     -10.91   -6.65   -5.27    0.02095    58.53  RIGHT     2.12210E-01   109.74    3.46496E-01   107.05
   25.00   130.00      -8.38   -3.02   -1.91    0.03423    61.69  RIGHT     2.84047E-01    99.63    5.26396E-01    94.94
   30.00   130.00     -16.96  -10.10   -9.29    0.06052    65.76  RIGHT     1.05794E-01    79.13    2.32907E-01    69.92
   35.00   130.00     -10.43   -1.98   -1.40    0.02125    69.32  RIGHT     2.24337E-01   -81.18    5.93457E-01   -84.87
   40.00   130.00     -10.52   -0.25    0.14    0.02258    73.01  RIGHT     2.21901E-01   -97.58    7.24258E-01  -102.20
   45.00   130.00     -12.89   -1.30   -1.00    0.01870    75.30  RIGHT     1.68865E-01    97.76    6.41957E-01    93.40
   50.00   130.00     -12.12    2.25    2.41    0.00051    79.18  LEFT      1.84580E-01    72.33    9.65775E-01    72.49
   55.00   130.00     -11.94    3.85    3.97    0.01308    80.81  RIGHT     1.88549E-01   -92.38    1.16143E+00   -97.12
   60.00   130.00     -21.17   -2.56   -2.50    0.06243    84.33  LEFT      6.50974E-02  -156.03    5.54787E-01  -123.53
   65.00   130.00     -14.67    7.82    7.84    0.00988    85.74  LEFT      1.37647E-01    65.97    1.83325E+00    73.58
   70.00   130.00     -20.03    3.89    3.91    0.01600    86.47  RIGHT     7.42690E-02   -85.55    1.16637E+00  -100.16
   75.00   130.00     -22.25    1.11    1.13    0.06789   -89.92  LEFT      5.75051E-02   152.33    8.46882E-01  -116.54
   80.00   130.00     -20.97    9.75    9.76    0.02541   -89.19  LEFT      6.66120E-02   -47.96    2.29092E+00    71.09
   85.00   130.00     -20.53    8.28    8.29    0.01847   -88.21  LEFT      7.00791E-02   103.07    1.93406E+00  -107.62
   90.00   130.00    -999.99 -186.87 -186.85    0.03930   -86.78  LEFT      2.31828E-11   -74.11    3.37999E-10    70.81
    0.00   140.00     -11.83  -13.44   -9.55    0.00147    39.71  LEFT      1.90995E-01   -56.88    1.58596E-01   -56.71
    5.00   140.00     -12.55  -14.06  -10.23    0.00347    40.03  RIGHT     1.75760E-01   -63.40    1.47659E-01   -63.80
   10.00   140.00     -17.09  -18.38  -14.68    0.02398    40.75  RIGHT     1.04133E-01   -74.59    8.97552E-02   -77.37
   15.00   140.00     -22.88  -21.67  -19.22    0.01984    48.96  RIGHT     5.35045E-02   138.96    6.14511E-02   136.66
   20.00   140.00      -9.83   -8.61   -6.17    0.02480    49.04  RIGHT     2.40224E-01   112.22    2.76673E-01   109.35
   25.00   140.00      -7.28   -4.99   -2.97    0.04315    52.48  RIGHT     3.22457E-01   103.12    4.19568E-01    98.01
   30.00   140.00     -15.75  -12.13  -10.56    0.08778    56.83  RIGHT     1.21491E-01    85.59    1.84501E-01    74.66
   35.00   140.00      -9.60   -4.10   -3.02    0.02875    62.05  RIGHT     2.46872E-01   -77.88    4.64686E-01   -81.85
   40.00   140.00      -9.55   -2.37   -1.61    0.03931    66.44  RIGHT     2.48292E-01   -92.08    5.67248E-01   -98.21
   45.00   140.00     -12.31   -3.50   -2.96    0.02357    70.10  RIGHT     1.80643E-01   100.80    4.97940E-01    96.59
   50.00   140.00     -11.27    0.06    0.37    0.00997    74.83  RIGHT     2.03694E-01    78.99    7.50687E-01    76.73
   55.00   140.00     -11.39    1.63    1.84    0.01805    77.45  RIGHT     2.00772E-01   -88.49    8.99084E-01   -93.35
   60.00   140.00     -21.09   -4.82   -4.72    0.06389    82.05  LEFT      6.57454E-02  -143.63    4.27947E-01  -118.55
   65.00   140.00     -14.26    5.58    5.62    0.01008    84.21  LEFT      1.44351E-01    72.11    1.41613E+00    77.84
   70.00   140.00     -20.37    1.63    1.66    0.01846    85.58  RIGHT     7.14527E-02   -82.61    8.98988E-01   -96.12
   75.00   140.00     -22.88   -1.15   -1.12    0.08192   -89.78  LEFT      5.35197E-02   155.55    6.52605E-01  -111.78
   80.00   140.00     -20.04    7.49    7.50    0.03294   -88.50  LEFT      7.41884E-02   -52.79    1.76522E+00    75.56
   85.00   140.00     -18.60    6.02    6.03    0.02557   -86.97  LEFT      8.75888E-02   102.67    1.48964E+00  -103.19
   90.00   140.00    -999.99 -189.14 -189.09    0.05144   -84.91  LEFT      2.67585E-11   -74.40    2.60325E-10    75.31
    0.00   150.00     -10.77  -15.65   -9.55    0.00147    29.71  LEFT      2.15633E-01   -56.86    1.23020E-01   -56.66
    5.00   150.00     -11.55  -16.32  -10.30    0.00279    29.99  RIGHT     1.97184E-01   -62.10    1.13779E-01   -62.47
   10.00   150.00     -16.08  -20.66  -14.78    0.02060    30.51  RIGHT     1.17080E-01   -71.57    6.90375E-02   -74.27
   15.00   150.00     -22.87  -24.70  -20.68    0.02509    39.03  RIGHT     5.35259E-02   141.29    4.34006E-02   138.35
   20.00   150.00      -9.32  -11.31   -7.19    0.02680    38.46  RIGHT     2.54944E-01   115.30    2.02586E-01   112.15
   25.00   150.00      -6.71   -7.72   -4.18    0.04916    41.68  RIGHT     3.44038E-01   107.45    3.06535E-01   101.79
   30.00   150.00     -14.98  -14.90  -11.93    0.11303    45.27  RIGHT     1.32775E-01    93.49    1.34006E-01    80.59
   35.00   150.00      -9.42   -7.04   -5.06    0.03754    52.76  RIGHT     2.52053E-01   -73.71    3.31295E-01   -78.17
   40.00   150.00      -9.12   -5.30   -3.80    0.06462    57.32  RIGHT     2.60671E-01   -85.15    4.04714E-01   -93.27
   45.00   150.00     -12.50   -6.56   -5.57    0.02901    63.25  RIGHT     1.76791E-01   104.56    3.50196E-01   100.43
   50.00   150.00     -10.99   -2.97   -2.33    0.03347    68.41  RIGHT     2.10368E-01    87.55    5.29679E-01    81.96
   55.00   150.00     -11.64   -1.45   -1.06    0.02564    72.85  RIGHT     1.95215E-01   -83.59    6.30272E-01   -88.79
   60.00   150.00     -21.54   -7.94   -7.75    0.04287    78.44  LEFT      6.24272E-02  -124.67    2.98808E-01  -112.33
   65.00   150.00     -14.66    2.46    2.55    0.00616    82.08  LEFT      1.37804E-01    80.45    9.89446E-01    83.03
   70.00   150.00     -22.14   -1.52   -1.48    0.01903    84.80  RIGHT     5.82148E-02   -79.36    6.25917E-01   -91.26
   75.00   150.00     -25.26   -4.30   -4.26    0.08922   -89.57  LEFT      4.06854E-02   159.27    4.54403E-01  -105.95
   80.00   150.00     -19.47    4.34    4.36    0.04078   -87.14  LEFT      7.91827E-02   -59.68    1.22838E+00    80.96
   85.00   150.00     -17.07    2.86    2.90    0.03486   -84.59  LEFT      1.04457E-01   102.58    1.03588E+00   -97.83
   90.00   150.00    -999.99 -192.29 -192.18    0.00000     0.00            2.91695E-11   -75.07    1.81025E-10    80.76
    0.00   160.00     -10.07  -18.99   -9.55    0.00147    19.71  LEFT      2.33719E-01   -56.84    8.37075E-02   -56.58
    5.00   160.00     -10.91  -19.73  -10.37    0.00158    19.90  RIGHT     2.12316E-01   -60.66    7.68465E-02   -60.94
   10.00   160.00     -15.39  -24.09  -14.84    0.01420    20.16  RIGHT     1.26636E-01   -68.21    4.65236E-02   -70.73
   15.00   160.00     -23.52  -28.99  -22.44    0.03183    28.02  RIGHT     4.96629E-02   144.47    2.64678E-02   140.08
   20.00   160.00      -9.25  -15.23   -8.28    0.02504    26.67  RIGHT     2.56784E-01   119.00    1.29114E-01   115.43
   25.00   160.00      -6.58  -11.66   -5.40    0.04711    29.05  RIGHT     3.49496E-01   112.63    1.94762E-01   106.28
   30.00   160.00     -14.49  -18.88  -13.15    0.11463    30.69  RIGHT     1.40478E-01   102.63    8.47339E-02    87.80
   35.00   160.00      -9.80  -11.27   -7.46    0.04516    40.19  RIGHT     2.41009E-01   -68.57    2.03714E-01   -73.81
   40.00   160.00      -9.12   -9.51   -6.30    0.09280    43.69  RIGHT     2.60647E-01   -76.67    2.49189E-01   -87.28
   45.00   160.00     -13.44  -10.95   -9.01    0.03530    53.12  RIGHT     1.58527E-01   109.14    2.11163E-01   104.93
   50.00   160.00     -11.13   -7.32   -5.81    0.07940    57.36  RIGHT     2.06858E-01    98.28    3.20958E-01    88.30
   55.00   160.00     -12.66   -5.89   -5.07    0.03950    65.44  RIGHT     1.73396E-01   -77.43    3.78035E-01   -83.41
   60.00   160.00     -21.69  -12.41  -11.93    0.03555    71.12  RIGHT     6.13589E-02   -98.04    1.78519E-01  -104.67
   65.00   160.00     -15.84   -2.02   -1.85    0.00988    78.49  RIGHT     1.20350E-01    92.11    5.90433E-01    89.21
   70.00   160.00     -26.34   -6.05   -6.01    0.01504    84.54  RIGHT     3.59338E-02   -76.56    3.71440E-01   -85.58
   75.00   160.00     -31.31   -8.82   -8.80    0.07435   -89.39  LEFT      2.02642E-02   163.01    2.69837E-01   -98.92
   80.00   160.00     -18.97   -0.20   -0.14    0.04686   -84.00  LEFT      8.38599E-02   -68.33    7.28311E-01    87.38
   85.00   160.00     -15.87   -1.69   -1.53    0.04710   -79.26  LEFT      1.19926E-01   102.94    6.13456E-01   -91.52
   90.00   160.00    -999.99 -196.84 -196.50    0.00000     0.00            3.04780E-11   -76.21    1.07206E-10    87.21
    0.00   170.00      -9.67  -25.01   -9.55    0.00147     9.71  LEFT      2.44704E-01   -56.82    4.18517E-02   -56.32
    5.00   170.00     -10.56  -25.83  -10.44    0.00003     9.78  LEFT      2.20817E-01   -59.11    3.80763E-02   -59.09
   10.00   170.00     -14.99  -30.27  -14.87    0.00571     9.77  RIGHT     1.32623E-01   -64.63    2.28519E-02   -66.59
   15.00   170.00     -24.84  -35.90  -24.51    0.03780    15.50  RIGHT     4.26826E-02   148.88    1.19458E-02   140.52
   20.00   170.00      -9.58  -21.80   -9.33    0.01733    13.73  RIGHT     2.47246E-01   123.36    6.05765E-02   119.06
   25.00   170.00      -6.79  -18.29   -6.50    0.03098    14.80  RIGHT     3.40910E-01   118.66    9.07152E-02   111.51
   30.00   170.00     -14.18  -25.59  -13.88    0.07043    14.56  RIGHT     1.45572E-01   112.63    3.91602E-02    96.41
   35.00   170.00     -10.73  -18.26  -10.03    0.04093    22.71  RIGHT     2.16591E-01   -62.19    9.10874E-02   -68.75
   40.00   170.00      -9.44  -16.51   -8.66    0.08715    23.50  RIGHT     2.51275E-01   -66.56    1.11360E-01   -80.07
   45.00   170.00     -15.26  -18.19  -13.47    0.03951    35.48  RIGHT     1.28680E-01   114.87    9.18209E-02   110.08
   50.00   170.00     -11.55  -14.51   -9.77    0.12740    35.11  RIGHT     1.97053E-01   111.37    1.40233E-01    95.98
   55.00   170.00     -14.60  -13.21  -10.84    0.06734    49.58  RIGHT     1.38841E-01   -69.28    1.62787E-01   -77.09
   60.00   170.00     -20.63  -19.78  -17.17    0.23109    48.12  RIGHT     6.93213E-02   -69.01    7.64688E-02   -95.17
   65.00   170.00     -17.70   -9.42   -8.81    0.07567    69.30  RIGHT     9.71022E-02   109.54    2.52054E-01    96.58
   70.00   170.00     -40.10  -13.51  -13.50    0.00530    87.33  LEFT      7.37041E-03   -85.49    1.57265E-01   -78.98
   75.00   170.00     -42.67  -16.28  -16.27    0.04755    89.66  RIGHT     5.47717E-03    -7.40    1.14329E-01   -90.39
   80.00   170.00     -18.34   -7.68   -7.32    0.03528   -73.77  LEFT      9.02414E-02   -77.51    3.07719E-01    94.99
   85.00   170.00     -14.97   -9.19   -8.17    0.05552   -62.92  LEFT      1.32988E-01   103.77    2.58706E-01   -84.05
   90.00   170.00    -999.99 -999.99 -999.99    0.00000     0.00            3.08317E-11   -77.89    4.52093E-11    94.87
    0.00   180.00      -9.55  -54.97   -9.55    0.00147    -0.29  LEFT      2.48254E-01   -56.81    1.32907E-03   107.26
    5.00   180.00     -10.50  -54.66  -10.50    0.00184    -0.34  LEFT      2.22568E-01   -57.49    1.37785E-03   105.25
   10.00   180.00     -14.84  -54.25  -14.84    0.00353    -0.58  LEFT      1.34918E-01   -60.95    1.44440E-03    99.81
   15.00   180.00     -26.89  -55.28  -26.88    0.03442     0.93  RIGHT     3.37099E-02   155.37    1.28278E-03    90.58
   20.00   180.00     -10.26  -61.42  -10.26    0.00254     0.06  RIGHT     2.28679E-01   128.41    6.33018E-04    62.05
   25.00   180.00      -7.31  -58.90   -7.31    0.00009    -0.15  LEFT      3.21339E-01   125.54    8.46186E-04   -56.34
   30.00   180.00     -14.00  -54.05  -14.00    0.00408    -0.52  LEFT      1.48710E-01   122.98    1.47824E-03   -81.27
   35.00   180.00     -12.19  -63.60  -12.19    0.00258     0.04  RIGHT     1.83106E-01   -54.10    4.92240E-04  -127.73
   40.00   180.00      -9.97  -54.35   -9.97    0.00208    -0.32  LEFT      2.36436E-01   -54.89    1.42800E-03   104.92
   45.00   180.00     -18.22  -62.10  -18.22    0.00527     0.21  RIGHT     9.14658E-02   122.84    5.85460E-04    67.41
   50.00   180.00     -12.07  -53.67  -12.07    0.00349    -0.43  LEFT      1.85632E-01   126.69    1.54483E-03   -78.14
   55.00   180.00     -17.70  -66.10  -17.70    0.00167    -0.20  RIGHT     9.70870E-02   -56.93    3.69235E-04   149.12
   60.00   180.00     -18.72  -54.75  -18.71    0.01012    -0.69  LEFT      8.63988E-02   -45.62    1.36430E-03    94.49
   65.00   180.00     -19.69  -54.03  -19.69    0.01034    -0.93  LEFT      7.72424E-02   136.78    1.48132E-03   -75.87
   70.00   180.00     -29.52  -67.65  -29.51    0.00323     0.69  LEFT      2.49176E-02   120.63    3.08697E-04   135.77
   75.00   180.00     -26.96  -56.11  -26.95    0.03418    -0.39  LEFT      3.34594E-02    -5.97    1.16679E-03    95.42
   80.00   180.00     -17.55  -52.46  -17.55    0.00194     1.02  LEFT      9.87851E-02   -85.60    1.77520E-03   -79.39
   85.00   180.00     -14.37  -55.31  -14.37    0.00043     0.51  RIGHT     1.42520E-01   105.03    1.27932E-03   102.31
   90.00   180.00    -999.99 -999.99 -999.99    0.00000     0.00            3.04153E-11   -80.08    2.59103E-13   -79.85
    0.00   190.00      -9.69  -24.50   -9.55    0.00147   -10.29  LEFT      2.44260E-01   -56.80    4.43689E-02   122.73
    5.00   190.00     -10.69  -25.37  -10.54    0.00362   -10.45  LEFT      2.17652E-01   -55.85    4.01607E-02   122.98
   10.00   190.00     -14.94  -29.28  -14.78    0.01204   -10.84  LEFT      1.33432E-01   -57.28    2.56121E-02   118.99
   15.00   190.00     -29.78  -40.61  -29.43    0.00297   -16.04  LEFT      2.41757E-02   165.94    6.94980E-03   -14.71
   20.00   190.00     -11.26  -23.52  -11.01    0.01775   -13.66  LEFT      2.03928E-01   134.19    4.96880E-02   -50.24
   25.00   190.00      -8.07  -19.68   -7.78    0.03727   -14.58  LEFT      2.94250E-01   133.18    7.73323E-02   -55.52
   30.00   190.00     -13.93  -26.02  -13.67    0.06826   -13.44  LEFT      1.49876E-01   133.10    3.72530E-02   -63.77
   35.00   190.00     -14.16  -21.14  -13.37    0.07137   -23.87  LEFT      1.45928E-01   -43.45    6.53718E-02   125.58
   40.00   190.00     -10.60  -18.71   -9.98    0.11294   -20.65  LEFT      2.19804E-01   -41.99    8.64119E-02   118.90
   45.00   190.00     -23.04  -22.06  -19.51    0.10846   -48.32  LEFT      5.24992E-02   137.38    5.88037E-02   -55.08
   50.00   190.00     -12.51  -17.42  -11.30    0.19757   -28.22  LEFT      1.76420E-01   143.38    1.00332E-01   -62.88
   55.00   190.00     -22.32  -17.14  -15.99    0.20098   -62.71  LEFT      5.70485E-02   -32.27    1.03585E-01   120.53
   60.00   190.00     -16.87  -22.76  -15.88    0.26920   -23.48  LEFT      1.06812E-01   -29.08    5.42242E-02   112.46
   65.00   190.00     -20.21  -13.41  -12.59    0.34743   -73.26  LEFT      7.27357E-02   172.41    1.59139E-01   -62.67
   70.00   190.00     -22.49  -18.10  -16.75    0.02408    58.93  RIGHT     5.59527E-02   122.46    9.27910E-02   119.34
   75.00   190.00     -21.84  -20.22  -17.94    0.60228   -56.58  LEFT      6.03249E-02    -1.54    7.26582E-02   114.40
   80.00   190.00     -16.77  -12.08  -10.81    0.21491    61.39  LEFT      1.08027E-01   -91.59    1.85504E-01   -63.40
   85.00   190.00     -14.07  -13.72  -10.88    0.09107    46.17  LEFT      1.47465E-01   106.61    1.53531E-01   117.03
   90.00   190.00    -999.99 -999.99 -999.99    0.00000     0.00            2.93941E-11   -82.68    2.70075E-11   -63.38
    0.00   200.00     -10.10  -18.74   -9.55    0.00147   -20.29  LEFT      2.32845E-01   -56.78    8.61094E-02   122.96
    5.00   200.00     -11.15  -19.68  -10.58    0.00517   -20.54  LEFT      2.06330E-01   -54.25    7.73298E-02   124.85
   10.00   200.00     -15.29  -23.60  -14.70    0.01866   -21.01  LEFT      1.28111E-01   -53.75    4.92470E-02   123.06
   15.00   200.00     -33.42  -36.75  -31.76    0.12040   -33.94  LEFT      1.59025E-02  -174.60    1.08346E-02    -9.38
   20.00   200.00     -12.54  -18.48  -11.55    0.03921   -26.71  LEFT      1.75905E-01   140.67    8.87562E-02   -44.91
   25.00   200.00      -9.05  -14.62   -7.99    0.06795   -27.60  LEFT      2.62844E-01   141.40    1.38494E-01   -48.04
   30.00   200.00     -14.02  -20.62  -13.16    0.10009   -24.57  LEFT      1.48334E-01   142.48    6.93664E-02   -52.48
   35.00   200.00     -16.54  -16.95  -13.73    0.14414   -43.60  LEFT      1.10999E-01   -28.86    1.05906E-01   134.72
   40.00   200.00     -11.27  -14.15   -9.46    0.16631   -35.13  LEFT      2.03599E-01   -28.59    1.46218E-01   131.43
   45.00   200.00     -30.17  -18.74  -18.44    0.19739   -79.70  LEFT      2.31030E-02  -175.19    8.61605E-02   -44.61
   50.00   200.00     -12.81  -13.31  -10.04    0.24424   -43.17  LEFT      1.70452E-01   159.88    1.61032E-01   -47.62
   55.00   200.00     -25.51  -13.96  -13.66    0.24605   -84.47  LEFT      3.95016E-02    24.05    1.49451E-01   134.15
   60.00   200.00     -15.53  -18.50  -13.76    0.24951   -34.04  LEFT      1.24655E-01   -17.24    8.85272E-02   132.93
   65.00   200.00     -18.90  -10.27   -9.71    0.33600   -81.12  LEFT      8.45362E-02  -157.63    2.28441E-01   -45.69
   70.00   200.00     -19.13  -15.67  -14.05    0.06992    56.24  LEFT      8.23994E-02   126.14    1.22731E-01   134.79
   75.00   200.00     -19.09  -16.88  -14.84    0.42255   -55.47  LEFT      8.27468E-02     2.91    1.06721E-01   135.15
   80.00   200.00     -16.20   -9.36   -8.54    0.32234    72.03  LEFT      1.15431E-01   -95.41    2.53784E-01   -44.63
   85.00   200.00     -14.10  -11.18   -9.39    0.22724    55.53  LEFT      1.47001E-01   108.36    2.05756E-01   135.54
   90.00   200.00    -999.99 -999.99 -999.99    0.00000     0.00            2.78599E-11   -85.49    3.65772E-11   -44.26
    0.00   210.00     -10.82  -15.49   -9.55    0.00147   -30.29  LEFT      2.14355E-01   -56.76    1.25234E-01   123.05
    5.00   210.00     -11.92  -16.48  -10.61    0.00629   -30.60  LEFT      1.89026E-01   -52.73    1.11801E-01   126.45
   10.00   210.00     -15.94  -20.34  -14.59    0.02268   -31.06  LEFT      1.18955E-01   -50.47    7.16926E-02   126.59
   15.00   210.00     -36.36  -35.88  -33.11    0.32986   -46.97  LEFT      1.13274E-02  -139.97    1.19714E-02     3.45
   20.00   210.00     -14.09  -16.04  -11.95    0.05696   -38.60  LEFT      1.47131E-01   147.77    1.17611E-01   -38.92
   25.00   210.00     -10.23  -12.05   -8.04    0.08456   -38.95  LEFT      2.29433E-01   149.87    1.86039E-01   -40.01
   30.00   210.00     -14.34  -17.51  -12.63    0.10074   -34.58  LEFT      1.42905E-01   150.77    9.92993E-02   -41.52
   35.00   210.00     -18.97  -15.45  -13.85    0.19847   -57.26  LEFT      8.39371E-02    -9.09    1.25761E-01   146.48
   40.00   210.00     -11.97  -11.94   -8.95    0.16128   -45.12  LEFT      1.87762E-01   -15.72    1.88529E-01   145.95
   45.00   210.00     -27.36  -18.55  -18.01    0.34001    82.79  LEFT      3.19290E-02  -100.33    8.80943E-02   -28.28
   50.00   210.00     -13.08  -11.49   -9.20    0.19974   -50.65  LEFT      1.65393E-01   174.62    1.98618E-01   -28.37
   55.00   210.00     -22.45  -13.68  -13.14    0.36297    88.35  LEFT      5.61838E-02    69.67    1.54308E-01   155.72
   60.00   210.00     -14.80  -16.01  -12.35    0.12695   -40.88  LEFT      1.35623E-01    -8.36    1.17930E-01   157.02
   65.00   210.00     -17.43   -9.64   -8.97    0.34017   -77.19  LEFT      1.00222E-01  -138.48    2.45651E-01   -19.14
   70.00   210.00     -17.36  -16.51  -13.90    0.30869    48.42  LEFT      1.00947E-01   129.93    1.11413E-01   164.43
   75.00   210.00     -17.63  -15.44  -13.39    0.18880   -52.68  LEFT      9.79102E-02     7.11    1.25970E-01   165.01
   80.00   210.00     -15.97   -9.09   -8.28    0.45024    87.19  LEFT      1.18453E-01   -97.53    2.61599E-01   -12.49
   85.00   210.00     -14.48  -11.25   -9.56    0.49892    63.16  LEFT      1.40669E-01   110.13    2.04169E-01   168.89
   90.00   210.00    -999.99 -999.99 -999.99    0.00000     0.00            2.58153E-11   -88.28    3.73861E-11   -10.89
    0.00   220.00     -11.90  -13.33   -9.55    0.00147   -40.29  LEFT      1.89352E-01   -56.74    1.60554E-01   123.09
    5.00   220.00     -13.03  -14.36  -10.63    0.00687   -40.62  LEFT      1.66302E-01   -51.33    1.42643E-01   127.87
   10.00   220.00     -16.93  -18.14  -14.49    0.02394   -41.03  LEFT      1.06061E-01   -47.53    9.23017E-02   129.71
   15.00   220.00     -36.37  -35.89  -33.11    0.48319   -47.54  LEFT      1.13224E-02  -104.10    1.19640E-02    24.21
   20.00   220.00     -15.91  -14.65  -12.23    0.06748   -49.17  LEFT      1.19353E-01   155.21    1.37923E-01   -32.59
   25.00   220.00     -11.64  -10.49   -8.01    0.08633   -48.85  LEFT      1.95096E-01   158.13    2.22831E-01   -31.82
   30.00   220.00     -15.01  -15.30  -12.14    0.08141   -44.01  LEFT      1.32410E-01   157.78    1.27964E-01   -31.53
   35.00   220.00     -20.85  -14.96  -13.97    0.23159   -65.51  LEFT      6.76111E-02    14.33    1.33054E-01   161.36
   40.00   220.00     -12.82  -10.46   -8.47    0.11990   -52.94  LEFT      1.70264E-01    -4.31    2.23593E-01   161.50
   45.00   220.00     -23.25  -19.38  -17.89    0.61069    78.16  LEFT      5.12411E-02   -78.95    8.00074E-02    -0.60
   50.00   220.00     -13.52  -10.04   -8.43    0.10906   -56.47  LEFT      1.57116E-01  -173.23    2.34566E-01    -6.71
   55.00   220.00     -19.86  -13.57  -12.65    0.46995   -83.12  LEFT      7.56940E-02    88.00    1.56264E-01  -170.86
   60.00   220.00     -14.71  -13.58  -11.10    0.01339   -48.73  RIGHT     1.36992E-01    -1.55    1.56095E-01   179.99
   65.00   220.00     -16.63   -8.39   -7.78    0.21418   -72.06  LEFT      1.09822E-01  -126.28    2.83588E-01    16.26
   70.00   220.00     -16.68  -15.66  -13.13    0.83352    65.03  LEFT      1.09262E-01   133.42    1.22752E-01  -144.56
   75.00   220.00     -17.12  -13.15  -11.68    0.05244   -57.73  RIGHT     1.03853E-01    10.86    1.64009E-01  -162.50
   80.00   220.00     -16.22   -7.17   -6.66    0.26383   -76.75  LEFT      1.15199E-01   -98.53    3.26414E-01    29.66
   85.00   220.00     -15.27   -9.27   -8.30    0.48118   -81.81  LEFT      1.28431E-01   111.74    2.56328E-01  -145.57
   90.00   220.00    -999.99 -999.99 -999.99    0.00000     0.00            2.31916E-11   -90.87    4.76022E-11    32.53
    0.00   230.00     -13.44  -11.83   -9.55    0.00147   -50.29  LEFT      1.58596E-01   -56.71    1.90995E-01   123.12
    5.00   230.00     -14.59  -12.89  -10.65    0.00686   -50.60  LEFT      1.38848E-01   -50.10    1.69034E-01   129.10
   10.00   230.00     -18.39  -16.59  -14.39    0.02268   -50.92  LEFT      8.96589E-02   -44.99    1.10396E-01   132.35
   15.00   230.00     -35.54  -35.23  -32.38    0.42571   -46.47  LEFT      1.24482E-02   -83.73    1.28987E-02    50.11
   20.00   230.00     -18.04  -13.82  -12.43    0.06911   -58.55  LEFT      9.33384E-02   162.56    1.51797E-01   -26.30
   25.00   230.00     -13.37   -9.43   -7.96    0.07646   -57.75  LEFT      1.59791E-01   165.66    2.51737E-01   -24.02
   30.00   230.00     -16.15  -13.63  -11.70    0.05455   -53.24  LEFT      1.16077E-01   163.45    1.55119E-01   -23.07
   35.00   230.00     -22.05  -14.67  -13.94    0.22944   -70.08  LEFT      5.88546E-02    35.74    1.37701E-01   178.64
   40.00   230.00     -14.02   -9.17   -7.94    0.06680   -60.36  LEFT      1.48411E-01     5.08    2.59238E-01   176.21
   45.00   230.00     -21.70  -18.67  -16.91    0.63062   -70.51  LEFT      6.12958E-02   -70.38    8.68474E-02    36.34
   50.00   230.00     -14.40   -8.38   -7.41    0.02104   -63.46  LEFT      1.41921E-01  -163.83    2.83941E-01    13.16
   55.00   230.00     -18.93  -11.48  -10.76    0.32096   -74.33  LEFT      8.43267E-02    97.23    1.98641E-01  -136.77
   60.00   230.00     -15.33  -11.17   -9.76    0.11025   -58.58  RIGHT     1.27528E-01     3.63    2.05924E-01  -162.29
   65.00   230.00     -16.72   -5.58   -5.25    0.07319   -75.03  LEFT      1.08694E-01  -118.12    3.92193E-01    45.45
   70.00   230.00     -16.92  -11.26  -10.22    0.44680   -74.56  LEFT      1.06237E-01   136.38    2.03775E-01  -108.93
   75.00   230.00     -17.47  -10.14   -9.41    0.17049   -68.40  RIGHT     9.96893E-02    14.00    2.31771E-01  -138.84
   80.00   230.00     -17.05   -3.45   -3.27    0.07699   -78.99  LEFT      1.04711E-01   -98.93    5.00683E-01    58.61
   85.00   230.00     -16.57   -5.22   -4.92    0.19757   -79.48  LEFT      1.10667E-01   113.03    4.08400E-01  -115.85
   90.00   230.00    -999.99 -999.99 -199.71    0.00000     0.00            1.99065E-11   -93.18    7.44151E-11    61.19
    0.00   240.00     -15.65  -10.77   -9.55    0.00147   -60.29  LEFT      1.23020E-01   -56.66    2.15633E-01   123.14
    5.00   240.00     -16.82  -11.86  -10.66    0.00628   -60.54  LEFT      1.07464E-01   -49.06    1.90274E-01   130.10
   10.00   240.00     -20.53  -15.49  -14.30    0.01938   -60.77  LEFT      7.01459E-02   -42.91    1.25301E-01   134.48
   15.00   240.00     -35.83  -33.59  -31.55    0.30184   -53.83  LEFT      1.20439E-02   -73.43    1.55958E-02    71.69
   20.00   240.00     -20.67  -13.30  -12.57    0.06184   -67.04  LEFT      6.89838E-02   169.24    1.61167E-01   -20.57
   25.00   240.00     -15.65   -8.67   -7.88    0.05965   -66.07  LEFT      1.22894E-01   171.97    2.74594E-01   -17.20
   30.00   240.00     -18.00  -12.37  -11.32    0.02972   -62.43  LEFT      9.37960E-02   167.74    1.79402E-01   -16.41
   35.00   240.00     -23.34  -14.12  -13.63    0.18651   -73.72  LEFT      5.07374E-02    51.15    1.46628E-01  -164.53
   40.00   240.00     -15.84   -8.00   -7.34    0.02377   -67.97  LEFT      1.20253E-01    12.22    2.96671E-01  -171.69
   45.00   240.00     -21.91  -16.10  -15.09    0.35346   -69.36  LEFT      5.97891E-02   -65.69    1.16758E-01    63.55
   50.00   240.00     -16.02   -6.70   -6.22    0.02719   -71.18  RIGHT     1.17846E-01  -156.99    3.44625E-01    28.10
   55.00   240.00     -19.44   -8.65   -8.30    0.16973   -76.85  LEFT      7.94593E-02   102.71    2.75339E-01  -115.56
   60.00   240.00     -16.82   -9.14   -8.46    0.13742   -68.69  RIGHT     1.07405E-01     7.34    2.60048E-01  -150.19
   65.00   240.00     -17.84   -2.77   -2.64    0.01402   -80.03  LEFT      9.55691E-02  -112.63    5.41830E-01    62.68
   70.00   240.00     -18.16   -7.55   -7.19    0.22261   -79.05  LEFT      9.20966E-02   138.61    3.12509E-01   -92.86
   75.00   240.00     -18.79   -7.55   -7.23    0.16532   -77.65  RIGHT     8.56934E-02    16.34    3.12558E-01  -124.53
   80.00   240.00     -18.65   -0.30   -0.24    0.01440   -83.16  LEFT      8.70106E-02   -99.21    7.19998E-01    73.85
   85.00   240.00     -18.54   -1.91   -1.82    0.08261   -83.05  LEFT      8.81111E-02   113.74    5.98177E-01  -100.95
   90.00   240.00    -999.99 -196.81 -196.71    0.00000     0.00            1.59219E-11   -95.33    1.07616E-10    76.01
    0.00   250.00     -18.99  -10.07   -9.55    0.00147   -70.29  LEFT      8.37075E-02   -56.58    2.33719E-01   123.16
    5.00   250.00     -20.17  -11.18  -10.66    0.00523   -70.46  LEFT      7.30483E-02   -48.21    2.05800E-01   130.84
   10.00   250.00     -23.80  -14.75  -14.24    0.01463   -70.59  LEFT      4.81003E-02   -41.28    1.36399E-01   136.05
   15.00   250.00     -37.87  -31.90  -30.92    0.18985   -64.93  LEFT      9.52147E-03   -67.96    1.89312E-02    84.88
   20.00   250.00     -24.25  -12.97  -12.66    0.04697   -74.94  LEFT      4.56973E-02   174.68    1.67353E-01   -15.94
   25.00   250.00     -18.97   -8.14   -7.80    0.04016   -74.11  LEFT      8.38937E-02   176.75    2.91806E-01   -11.93
   30.00   250.00     -21.03  -11.48  -11.02    0.01187   -71.59  LEFT      6.62121E-02   170.61    1.98819E-01   -11.66
   35.00   250.00     -25.71  -13.39  -13.14    0.12425   -78.26  LEFT      3.86029E-02    60.86    1.59514E-01  -151.50
   40.00   250.00     -18.82   -7.05   -6.77    0.00048   -75.54  LEFT      8.53584E-02    17.05    3.31036E-01  -163.07
   45.00   250.00     -23.89  -13.77  -13.36    0.18575   -75.93  LEFT      4.76055E-02   -63.06    1.52742E-01    77.74
   50.00   250.00     -18.86   -5.34   -5.15    0.03663   -78.27  RIGHT     8.49759E-02  -152.61    4.03037E-01    37.83
   55.00   250.00     -21.59   -6.47   -6.34    0.08629   -81.32  LEFT      6.20338E-02   105.91    3.53869E-01  -104.33
   60.00   250.00     -19.60   -7.67   -7.40    0.11330   -77.22  RIGHT     7.80664E-02     9.45    3.08053E-01  -142.53
   65.00   250.00     -20.36   -0.74   -0.70    0.00267   -84.04  RIGHT     7.14781E-02  -109.32    6.84097E-01    72.16
   70.00   250.00     -20.75   -5.14   -5.03    0.11493   -83.18  LEFT      6.83390E-02   139.76    4.12142E-01   -84.90
   75.00   250.00     -21.43   -5.71   -5.60    0.11680   -83.45  RIGHT     6.32355E-02    17.54    3.86056E-01  -116.21
   80.00   250.00     -21.45    1.83    1.85    0.00240   -86.08  RIGHT     6.30304E-02   -99.97    9.20300E-01    82.05
   85.00   250.00     -21.63    0.29    0.32    0.03553   -85.89  LEFT      6.17788E-02   113.39    7.70386E-01   -93.06
   90.00   250.00    -999.99 -194.66 -194.63    0.00000     0.00            1.12867E-11   -97.75    1.37751E-10    83.98
    0.00   260.00     -25.01   -9.67   -9.55    0.00147   -80.29  LEFT      4.18517E-02   -56.32    2.44704E-01   123.18
    5.00   260.00     -26.18  -10.79  -10.67    0.00382   -80.36  LEFT      3.65777E-02   -47.37    2.15195E-01   131.30
   10.00   260.00     -29.74  -14.33  -14.20    0.00898   -80.39  LEFT      2.42679E-02   -39.85    1.43191E-01   137.02
   15.00   260.00     -43.06  -30.82  -30.56    0.09203   -77.26  LEFT      5.23735E-03   -65.12    2.14533E-02    91.54
   20.00   260.00     -30.26  -12.79  -12.71    0.02675   -82.53  LEFT      2.28685E-02   178.78    1.70967E-01   -12.95
   25.00   260.00     -24.80   -7.82   -7.74    0.02060   -82.02  LEFT      4.28773E-02   179.91    3.02709E-01    -8.62
   30.00   260.00     -26.65  -10.94  -10.83    0.00146   -80.69  LEFT      3.46624E-02   171.71    2.11385E-01    -8.81
   35.00   260.00     -30.73  -12.79  -12.72    0.06328   -83.72  LEFT      2.16750E-02    66.60    1.70842E-01  -143.71
   40.00   260.00     -24.40   -6.43   -6.36    0.00594   -82.80  RIGHT     4.49165E-02    19.27    3.55345E-01  -158.00
   45.00   260.00     -28.71  -12.36  -12.26    0.08204   -82.69  LEFT      2.73476E-02   -62.41    1.79660E-01    84.38
   50.00   260.00     -24.34   -4.48   -4.44    0.02494   -84.37  RIGHT     4.51925E-02  -151.12    4.44730E-01    43.22
   55.00   260.00     -26.54   -5.19   -5.16    0.03695   -85.59  LEFT      3.50881E-02   106.92    4.10112E-01   -98.83
   60.00   260.00     -24.98   -6.79   -6.73    0.06605   -84.06  RIGHT     4.20146E-02     8.92    3.40868E-01  -138.29
   65.00   260.00     -25.59    0.44    0.45    0.00492   -87.15  RIGHT     3.91415E-02  -108.67    7.83619E-01    76.99
   70.00   260.00     -25.95   -3.81   -3.78    0.04967   -86.55  LEFT      3.75553E-02   138.68    4.80608E-01   -80.96
   75.00   260.00     -26.66   -4.64   -4.61    0.06218   -87.18  RIGHT     3.46228E-02    16.36    4.36681E-01  -111.81
   80.00   260.00     -26.69    3.04    3.05    0.00519   -88.16  RIGHT     3.44773E-02  -102.94    1.05808E+00    86.24
   85.00   260.00     -27.09    1.53    1.53    0.01205   -87.99  LEFT      3.29257E-02   109.96    8.88487E-01   -89.04
   90.00   260.00    -999.99 -193.45 -193.44    0.00000     0.00            6.15806E-12  -102.42    1.58427E-10    88.06
    0.00   270.00     -54.97   -9.55   -9.55    0.00147    89.71  LEFT      1.32907E-03   107.26    2.48254E-01   123.19
    5.00   270.00     -57.04  -10.67  -10.67    0.00224    89.76  LEFT      1.04824E-03   103.69    2.18209E-01   131.48
   10.00   270.00     -61.09  -14.20  -14.20    0.00293    89.80  LEFT      6.57616E-04    96.96    1.45353E-01   137.39
   15.00   270.00     -91.17  -30.50  -30.50    0.00057    89.96  LEFT      2.05902E-05    55.30    2.22461E-02    93.56
   20.00   270.00     -61.21  -12.73  -12.73    0.00377   -90.00  LEFT      6.48488E-04  -103.15    1.72156E-01   -11.94
   25.00   270.00     -59.85   -7.72   -7.72    0.00166   -89.89  LEFT      7.58030E-04  -145.41    3.06395E-01    -7.47
   30.00   270.00     -54.73  -10.77  -10.77    0.00428   -89.73  RIGHT     1.36631E-03   129.68    2.15667E-01    -7.83
   35.00   270.00     -52.14  -12.57  -12.57    0.00763   -89.59  LEFT      1.84197E-03    85.40    1.75242E-01  -141.17
   40.00   270.00     -52.10   -6.22   -6.22    0.00360   -89.79  RIGHT     1.85037E-03   -21.41    3.64100E-01  -156.31
   45.00   270.00     -48.12  -11.90  -11.90    0.00336   -89.14  LEFT      2.92439E-03   -81.07    1.89417E-01    86.34
   50.00   270.00     -48.82   -4.19   -4.19    0.00542   -89.87  RIGHT     2.70007E-03   157.68    4.59815E-01    44.96
   55.00   270.00     -47.18   -4.77   -4.77    0.00044   -89.57  LEFT      3.26045E-03    86.15    4.30358E-01   -97.15
   60.00   270.00     -45.15   -6.50   -6.50    0.01167   -89.96  RIGHT     4.11995E-03   -43.71    3.52540E-01  -136.91
   65.00   270.00     -47.24    0.82    0.82    0.00294   -89.85  RIGHT     3.23789E-03  -149.67    8.19261E-01    78.50
   70.00   270.00     -44.81   -3.38   -3.38    0.00074   -89.52  RIGHT     4.28442E-03    95.24    5.04913E-01   -79.75
   75.00   270.00     -45.32   -4.29   -4.29    0.00877    89.92  RIGHT     4.03763E-03   -29.34    4.54739E-01  -110.42
   80.00   270.00     -43.06    3.44    3.44    0.00400   -89.86  RIGHT     5.23918E-03  -150.22    1.10712E+00    87.55
   85.00   270.00     -42.79    1.93    1.93    0.00373   -89.74  RIGHT     5.40500E-03    52.29    9.30459E-01   -87.79
   90.00   270.00    -999.99 -193.05 -193.05    0.00000     0.00            1.15096E-12  -150.69    1.65779E-10    89.33
    0.00   280.00     -24.50   -9.69   -9.55    0.00147    79.71  LEFT      4.43689E-02   122.73    2.44260E-01   123.20
    5.00   280.00     -25.76  -10.81  -10.67    0.00065    79.87  LEFT      3.83879E-02   131.14    2.14759E-01   131.35
   10.00   280.00     -29.41  -14.35  -14.22    0.00305    79.99  RIGHT     2.52088E-02   138.15    1.42774E-01   137.13
   15.00   280.00     -43.08  -31.00  -30.73    0.09296    77.00  RIGHT     5.22758E-03   114.62    2.10129E-02    91.46
   20.00   280.00     -30.35  -12.79  -12.71    0.01937    82.54  RIGHT     2.26255E-02    -4.47    1.70925E-01   -13.03
   25.00   280.00     -25.06   -7.83   -7.75    0.01723    82.23  RIGHT     4.16232E-02    -1.26    3.02461E-01    -8.58
   30.00   280.00     -27.16  -10.95  -10.85    0.00965    81.22  RIGHT     3.26850E-02    -5.03    2.11139E-01    -8.69
   35.00   280.00     -32.24  -12.80  -12.75    0.04746    84.54  RIGHT     1.82128E-02  -117.07    1.70665E-01  -143.73
   40.00   280.00     -24.94   -6.43   -6.37    0.00100    83.23  RIGHT     4.21910E-02  -157.43    3.55252E-01  -157.92
   45.00   280.00     -30.63  -12.37  -12.30    0.07478    84.49  RIGHT     2.19082E-02   122.58    1.79454E-01    84.39
   50.00   280.00     -24.97   -4.48   -4.44    0.01410    84.66  LEFT      4.20506E-02    34.64    4.44820E-01    43.29
   55.00   280.00     -28.16   -5.19   -5.17    0.03574    86.49  RIGHT     2.91172E-02   -68.45    4.10100E-01   -98.80
   60.00   280.00     -25.93   -6.79   -6.74    0.04240    84.18  LEFT      3.76483E-02  -161.04    3.40991E-01  -138.21
   65.00   280.00     -26.67    0.44    0.45    0.00107    87.48  RIGHT     3.45628E-02    78.42    7.83916E-01    77.03
   70.00   280.00     -27.36   -3.81   -3.79    0.05104    87.56  RIGHT     3.19518E-02   -30.65    4.80666E-01   -80.94
   75.00   280.00     -28.01   -4.64   -4.62    0.04399    87.05  LEFT      2.96211E-02  -152.35    4.36916E-01  -111.77
   80.00   280.00     -28.34    3.05    3.05    0.00304    88.47  RIGHT     2.85211E-02    92.76    1.05853E+00    86.27
   85.00   280.00     -28.28    1.53    1.54    0.01967    88.53  RIGHT     2.87293E-02   -51.50    8.88828E-01   -89.02
   90.00   280.00    -999.99 -193.45 -193.44    0.00000     0.00            4.95475E-12    97.91    1.58495E-10    88.08
    0.00   290.00     -18.74  -10.10   -9.55    0.00147    69.71  LEFT      8.61094E-02   122.96    2.32845E-01   123.22
    5.00   290.00     -19.97  -11.21  -10.67    0.00077    69.96  RIGHT     7.47534E-02   131.08    2.04938E-01   130.94
   10.00   290.00     -23.65  -14.80  -14.27    0.00852    70.15  RIGHT     4.89534E-02   137.80    1.35571E-01   136.27
   15.00   290.00     -37.96  -32.30  -31.26    0.19811    64.15  RIGHT     9.42008E-03   112.09    1.80763E-02    84.37
   20.00   290.00     -24.29  -12.98  -12.67    0.04006    74.94  RIGHT     4.54999E-02    -7.01    1.67291E-01   -16.09
   25.00   290.00     -19.10   -8.16   -7.82    0.03664    74.29  RIGHT     8.26351E-02    -3.86    2.91303E-01   -11.87
   30.00   290.00     -21.30  -11.50  -11.07    0.01897    72.10  RIGHT     6.41721E-02    -7.70    1.98301E-01   -11.42
   35.00   290.00     -26.51  -13.41  -13.20    0.10687    79.03  RIGHT     3.52263E-02  -121.50    1.59187E-01  -151.56
   40.00   290.00     -19.11   -7.05   -6.79    0.00658    75.99  RIGHT     8.25358E-02  -161.30    3.30782E-01  -162.90
   45.00   290.00     -24.95  -13.79  -13.47    0.17682    77.96  RIGHT     4.21627E-02   119.59    1.52327E-01    77.76
   50.00   290.00     -19.20   -5.34   -5.16    0.02596    78.63  LEFT      8.17061E-02    30.33    4.03131E-01    37.99
   55.00   290.00     -22.47   -6.47   -6.36    0.08385    82.34  RIGHT     5.60686E-02   -71.68    3.53814E-01  -104.27
   60.00   290.00     -20.10   -7.67   -7.43    0.08907    77.49  LEFT      7.36599E-02  -165.37    3.08244E-01  -142.36
   65.00   290.00     -20.94   -0.74   -0.70    0.00356    84.43  RIGHT     6.68554E-02    74.35    6.84621E-01    72.24
   70.00   290.00     -21.49   -5.14   -5.04    0.11587    84.35  RIGHT     6.27903E-02   -34.67    4.12236E-01   -84.85
   75.00   290.00     -22.14   -5.70   -5.61    0.09662    83.39  LEFT      5.82799E-02  -156.59    3.86481E-01  -116.11
   80.00   290.00     -22.29    1.84    1.86    0.00654    86.46  RIGHT     5.72638E-02    88.17    9.21130E-01    82.11
   85.00   290.00     -22.22    0.30    0.32    0.04362    86.52  RIGHT     5.77026E-02   -57.20    7.71018E-01   -93.00
   90.00   290.00    -999.99 -194.66 -194.63    0.00000     0.00            1.01496E-11    92.72    1.37877E-10    84.04
    0.00   300.00     -15.49  -10.82   -9.55    0.00147    59.71  LEFT      1.25234E-01   123.05    2.14355E-01   123.24
    5.00   300.00     -16.70  -11.92  -10.67    0.00185    60.03  RIGHT     1.08996E-01   130.50    1.89009E-01   130.26
   10.00   300.00     -20.44  -15.57  -14.35    0.01300    60.28  RIGHT     7.08516E-02   136.56    1.24074E-01   134.83
   15.00   300.00     -36.02  -34.26  -32.04    0.32687    52.18  RIGHT     1.17866E-02   106.76    1.44355E-02    69.69
   20.00   300.00     -20.69  -13.30  -12.57    0.05571    67.03  RIGHT     6.88670E-02   -11.95    1.61126E-01   -20.79
   25.00   300.00     -15.74   -8.70   -7.91    0.05598    66.21  RIGHT     1.21628E-01    -8.46    2.73827E-01   -17.11
   30.00   300.00     -18.20  -12.41  -11.39    0.03515    62.88  RIGHT     9.16480E-02   -11.07    1.78562E-01   -16.03
   35.00   300.00     -23.90  -14.15  -13.71    0.16694    74.37  RIGHT     4.75831E-02  -131.16    1.46219E-01  -164.67
   40.00   300.00     -16.06   -8.02   -7.38    0.02835    68.44  RIGHT     1.17271E-01  -166.69    2.96128E-01  -171.44
   45.00   300.00     -22.74  -16.14  -15.29    0.34111    72.03  RIGHT     5.43360E-02   116.28    1.16154E-01    63.52
   50.00   300.00     -16.28   -6.70   -6.25    0.01749    71.66  LEFT      1.14364E-01    25.01    3.44541E-01    28.36
   55.00   300.00     -20.12   -8.65   -8.35    0.16416    78.09  RIGHT     7.34987E-02   -75.57    2.75169E-01  -115.45
   60.00   300.00     -17.19   -9.14   -8.51    0.11359    69.22  LEFT      1.02945E-01  -169.03    2.60188E-01  -149.89
   65.00   300.00     -18.28   -2.76   -2.64    0.02025    80.56  RIGHT     9.08732E-02    69.97    5.42402E-01    62.83
   70.00   300.00     -18.69   -7.55   -7.22    0.22238    80.58  RIGHT     8.66636E-02   -37.38    3.12587E-01   -92.77
   75.00   300.00     -19.29   -7.53   -7.25    0.14208    77.82  LEFT      8.08394E-02  -159.46    3.13063E-01  -124.34
   80.00   300.00     -19.21   -0.29   -0.23    0.02440    83.69  RIGHT     8.16240E-02    86.58    7.21039E-01    73.98
   85.00   300.00     -18.93   -1.90   -1.81    0.09126    83.89  RIGHT     8.42884E-02   -59.85    5.98980E-01  -100.84
   90.00   300.00    -999.99 -196.79 -196.71    0.00000     0.00            1.49142E-11    91.98    1.07777E-10    76.13
    0.00   310.00     -13.33  -11.90   -9.55    0.00147    49.71  LEFT      1.60554E-01   123.09    1.89352E-01   123.26
    5.00   310.00     -14.51  -12.97  -10.66    0.00247    50.06  RIGHT     1.40142E-01   129.61    1.67398E-01   129.33
   10.00   310.00     -18.35  -16.71  -14.44    0.01597    50.35  RIGHT     9.01568E-02   134.70    1.08790E-01   132.83
   15.00   310.00     -35.88  -36.02  -32.94    0.48542    44.27  RIGHT     1.19701E-02    96.32    1.17841E-02    44.53
   20.00   310.00     -18.04  -13.82  -12.43    0.06413    58.54  RIGHT     9.33400E-02   -18.38    1.51822E-01   -26.61
   25.00   310.00     -13.44   -9.46   -8.00    0.07272    57.84  RIGHT     1.58516E-01   -14.70    2.50708E-01   -23.92
   30.00   310.00     -16.33  -13.70  -11.81    0.05796    53.59  RIGHT     1.13769E-01   -15.59    1.53896E-01   -22.53
   35.00   310.00     -22.45  -14.69  -14.02    0.20803    70.51  RIGHT     5.62171E-02  -146.93    1.37326E-01   178.41
   40.00   310.00     -14.21   -9.20   -8.01    0.06946    60.82  RIGHT     1.45214E-01  -174.13    2.58245E-01   176.55
   45.00   310.00     -22.51  -18.73  -17.21    0.59994    75.22  RIGHT     5.58046E-02   111.29    8.62044E-02    36.04
   50.00   310.00     -14.64   -8.40   -7.47    0.02847    64.05  RIGHT     1.38141E-01    17.69    2.83396E-01    13.55
   55.00   310.00     -19.56  -11.50  -10.87    0.30730    75.94  RIGHT     7.83499E-02   -81.39    1.98230E-01  -136.61
   60.00   310.00     -15.65  -11.18   -9.85    0.08951    59.39  LEFT      1.22983E-01  -173.44    2.05807E-01  -161.80
   65.00   310.00     -17.12   -5.57   -5.28    0.07785    75.80  RIGHT     1.03876E-01    63.98    3.92432E-01    45.75
   70.00   310.00     -17.36  -11.26  -10.31    0.44289    77.16  RIGHT     1.00966E-01   -40.23    2.03728E-01  -108.76
   75.00   310.00     -17.89  -10.13   -9.46    0.14568    69.04  LEFT      9.49774E-02  -162.50    2.32133E-01  -138.48
   80.00   310.00     -17.46   -3.44   -3.27    0.08748    79.86  RIGHT     9.98708E-02    85.83    5.01553E-01    58.87
   85.00   310.00     -16.84   -5.21   -4.92    0.20570    80.77  RIGHT     1.07190E-01   -62.02    4.09100E-01  -115.62
   90.00   310.00    -999.99 -200.00 -199.72    0.00000     0.00            1.90766E-11    92.61    7.45566E-11    61.44
    0.00   320.00     -11.83  -13.44   -9.55    0.00147    39.71  LEFT      1.90995E-01   123.12    1.58596E-01   123.29
    5.00   320.00     -12.98  -14.48  -10.65    0.00256    40.06  RIGHT     1.67298E-01   128.48    1.40681E-01   128.18
   10.00   320.00     -16.92  -18.33  -14.55    0.01689    40.36  RIGHT     1.06291E-01   132.31    9.03477E-02   130.35
   15.00   320.00     -36.93  -36.28  -33.58    0.57084    49.21  RIGHT     1.06112E-02    74.69    1.14336E-02    14.98
   20.00   320.00     -15.90  -14.64  -12.22    0.06404    49.15  RIGHT     1.19509E-01   -25.59    1.38053E-01   -32.99
   25.00   320.00     -11.70  -10.54   -8.07    0.08269    48.88  RIGHT     1.93812E-01   -22.19    2.21562E-01   -31.73
   30.00   320.00     -15.17  -15.42  -12.28    0.08267    44.19  RIGHT     1.29885E-01   -21.39    1.26307E-01   -30.85
   35.00   320.00     -21.06  -14.98  -14.02    0.21027    65.66  RIGHT     6.59601E-02  -168.61    1.32828E-01   161.03
   40.00   320.00     -13.00  -10.52   -8.57    0.12077    53.33  RIGHT     1.66817E-01   176.25    2.22040E-01   161.90
   45.00   320.00     -24.26  -19.41  -18.18    0.54236   -79.05  RIGHT     4.56520E-02   102.41    7.97130E-02    -1.24
   50.00   320.00     -13.75  -10.09   -8.53    0.11370    57.07  RIGHT     1.52967E-01     7.95    2.33272E-01    -6.22
   55.00   320.00     -20.59  -13.61  -12.81    0.43728    84.37  RIGHT     6.96610E-02   -90.99    1.55554E-01  -170.76
   60.00   320.00     -15.01  -13.61  -11.25    0.00267    49.59  RIGHT     1.32319E-01  -178.97    1.55427E-01  -179.28
   65.00   320.00     -17.04   -8.41   -7.86    0.21341    73.10  RIGHT     1.04812E-01    55.51    2.82832E-01    16.72
   70.00   320.00     -17.09  -15.69  -13.32    0.77811   -65.20  RIGHT     1.04196E-01   -43.38    1.22354E-01  -144.31
   75.00   320.00     -17.50  -13.16  -11.80    0.03112    58.80  LEFT      9.93193E-02  -165.89    1.63813E-01  -161.87
   80.00   320.00     -16.53   -7.17   -6.70    0.27008    78.24  RIGHT     1.11079E-01    85.75    3.26232E-01    30.16
   85.00   320.00     -15.48   -9.27   -8.34    0.47953    84.29  RIGHT     1.25375E-01   -64.13    2.56247E-01  -145.10
   90.00   320.00    -999.99 -999.99 -999.99    0.00000     0.00            2.25785E-11    94.03    4.75967E-11    33.02
    0.00   330.00     -10.77  -15.65   -9.55    0.00147    29.71  LEFT      2.15633E-01   123.14    1.23020E-01   123.34
    5.00   330.00     -11.89  -16.65  -10.63    0.00208    30.01  RIGHT     1.89672E-01   127.16    1.09566E-01   126.88
   10.00   330.00     -15.94  -20.61  -14.67    0.01535    30.28  RIGHT     1.18860E-01   129.48    6.94345E-02   127.46
   15.00   330.00     -36.85  -35.74  -33.25    0.38541    49.93  RIGHT     1.07078E-02    35.54    1.21643E-02    -7.04
   20.00   330.00     -14.07  -16.02  -11.93    0.05546    38.59  RIGHT     1.47473E-01   -32.93    1.17868E-01   -39.44
   25.00   330.00     -10.28  -12.12   -8.09    0.08126    38.89  RIGHT     2.28138E-01   -30.43    1.84573E-01   -39.93
   30.00   330.00     -14.52  -17.69  -12.81    0.09980    34.53  RIGHT     1.40103E-01   -28.50    9.71942E-02   -40.68
   35.00   330.00     -19.00  -15.46  -13.87    0.17990    57.20  RIGHT     8.35694E-02   168.28    1.25732E-01   146.07
   40.00   330.00     -12.15  -12.04   -9.08    0.16075    45.38  RIGHT     1.84073E-01   164.62    1.86426E-01   146.36
   45.00   330.00     -29.04  -18.53  -18.16    0.28277   -84.55  RIGHT     2.63290E-02    78.15    8.82539E-02   -28.95
   50.00   330.00     -13.32  -11.58   -9.35    0.20237    51.19  RIGHT     1.60850E-01    -4.51    1.96518E-01   -27.88
   55.00   330.00     -23.44  -13.72  -13.28    0.32597   -88.67  RIGHT     5.01657E-02  -110.69    1.53515E-01   155.67
   60.00   330.00     -15.12  -16.12  -12.58    0.14064    41.56  RIGHT     1.30759E-01   174.04    1.16467E-01   157.92
   65.00   330.00     -17.90   -9.71   -9.10    0.33041    78.24  RIGHT     9.49353E-02    42.98    2.43642E-01   -18.73
   70.00   330.00     -17.79  -16.56  -14.12    0.27587   -49.71  RIGHT     9.61284E-02   -46.72    1.10725E-01   164.47
   75.00   330.00     -18.02  -15.52  -13.58    0.20891    53.90  RIGHT     9.35893E-02  -169.58    1.24819E-01   165.77
   80.00   330.00     -16.21   -9.16   -8.38    0.43676   -85.34  RIGHT     1.15237E-01    86.56    2.59534E-01   -11.96
   85.00   330.00     -14.64  -11.31   -9.66    0.46843   -62.42  RIGHT     1.38088E-01   -66.26    2.02614E-01   169.37
   90.00   330.00    -999.99 -999.99 -999.99    0.00000     0.00            2.54442E-11    95.99    3.70956E-11   -10.34
    0.00   340.00     -10.07  -18.99   -9.55    0.00147    19.71  LEFT      2.33719E-01   123.16    8.37075E-02   123.42
    5.00   340.00     -11.14  -19.96  -10.61    0.00109    19.93  RIGHT     2.06583E-01   125.69    7.48857E-02   125.49
   10.00   340.00     -15.33  -24.05  -14.78    0.01116    20.10  RIGHT     1.27638E-01   126.28    4.67426E-02   124.30
   15.00   340.00     -33.44  -36.18  -31.59    0.17966    35.49  RIGHT     1.58573E-02     0.31    1.15669E-02   -21.13
   20.00   340.00     -12.51  -18.44  -11.53    0.03997    26.74  RIGHT     1.76453E-01   -39.95    8.91441E-02   -45.64
   25.00   340.00      -9.09  -14.72   -8.04    0.06528    27.46  RIGHT     2.61538E-01   -38.89    1.36891E-01   -47.99
   30.00   340.00     -14.21  -20.94  -13.37    0.09672    24.26  RIGHT     1.45204E-01   -36.88    6.68608E-02   -51.49
   35.00   340.00     -16.48  -16.93  -13.69    0.13110    43.46  RIGHT     1.11732E-01   149.16    1.06064E-01   134.20
   40.00   340.00     -11.44  -14.30   -9.62    0.16448    35.20  RIGHT     1.99730E-01   151.55    1.43698E-01   131.81
   45.00   340.00     -30.35  -18.69  -18.41    0.14727    77.81  RIGHT     2.26402E-02    -9.19    8.66269E-02   -45.29
   50.00   340.00     -13.06  -13.45  -10.24    0.24531    43.56  RIGHT     1.65591E-01   -19.62    1.58352E-01   -47.21
   55.00   340.00     -26.43  -14.00  -13.76    0.21123    83.60  RIGHT     3.55561E-02  -162.59    1.48728E-01   134.01
   60.00   340.00     -15.90  -18.72  -14.07    0.26380    34.41  RIGHT     1.19513E-01   165.09    8.63349E-02   133.79
   65.00   340.00     -19.49  -10.37   -9.87    0.31965    81.85  RIGHT     7.89920E-02    23.03    2.25768E-01   -45.46
   70.00   340.00     -19.62  -15.71  -14.23    0.03619   -57.50  RIGHT     7.78800E-02   -49.88    1.22075E-01   134.69
   75.00   340.00     -19.53  -17.04  -15.10    0.44724    57.39  RIGHT     7.86732E-02  -173.33    1.04822E-01   135.74
[...]
   50.00   370.00     -11.75  -14.32   -9.84    0.12461   -36.37  LEFT      1.92614E-01   -69.13    1.43275E-01    96.02
   55.00   370.00     -14.40  -13.18  -10.74    0.05105   -49.03  LEFT      1.41934E-01   108.97    1.63319E-01   -76.94
   60.00   370.00     -21.44  -19.48  -17.34    0.22722   -52.13  LEFT      6.31321E-02   111.33    7.91449E-02   -94.98
   65.00   370.00     -17.84   -9.32   -8.74    0.05843   -69.67  LEFT      9.55895E-02   -73.20    2.54974E-01    96.60
   70.00   370.00     -35.27  -13.48  -13.46    0.02830   -85.63  RIGHT     1.28507E-02    80.65    1.57790E-01   -78.89
   75.00   370.00     -43.50  -16.11  -16.10    0.02401    87.98  LEFT      4.97947E-03  -124.65    1.16632E-01   -90.38
   80.00   370.00     -18.14   -7.58   -7.22    0.05472    73.74  RIGHT     9.23231E-02   106.53    3.11229E-01    94.98
   85.00   370.00     -15.00   -9.10   -8.11    0.07568    63.35  RIGHT     1.32474E-01   -73.30    2.61236E-01   -84.06
   90.00   370.00    -999.99 -999.99 -999.99    0.00000     0.00            3.12753E-11   104.63    4.57219E-11    94.86
    0.00   380.00     -10.10  -18.74   -9.55    0.00147   -20.29  LEFT      2.32845E-01   123.22    8.61094E-02   -57.04
    5.00   380.00     -10.97  -19.45  -10.39    0.00474   -20.63  LEFT      2.10798E-01   119.41    7.93570E-02   -61.41
   10.00   380.00     -15.55  -23.61  -14.92    0.01964   -21.56  LEFT      1.24371E-01   111.97    4.91952E-02   -71.32
   15.00   380.00     -23.24  -29.48  -22.32    0.01836   -25.99  RIGHT     5.12994E-02   -38.27    2.50305E-02   144.39
   20.00   380.00      -9.21  -15.27   -8.25    0.01828   -26.44  LEFT      2.58185E-01   -61.51    1.28444E-01   115.86
   25.00   380.00      -6.61  -11.59   -5.41    0.04433   -29.35  LEFT      3.48121E-01   -67.68    1.96301E-01   106.38
   30.00   380.00     -14.77  -18.61  -13.27    0.11602   -32.38  LEFT      1.36092E-01   -77.40    8.74955E-02    88.02
   35.00   380.00      -9.71  -11.29   -7.42    0.03666   -39.83  LEFT      2.43526E-01   110.66    2.03225E-01   -73.60
   40.00   380.00      -9.25   -9.42   -6.32    0.08878   -44.41  LEFT      2.57029E-01   102.93    2.51859E-01   -87.22
   45.00   380.00     -13.23  -10.99   -8.95    0.02374   -52.31  LEFT      1.62561E-01   -72.07    2.10360E-01   105.11
   50.00   380.00     -11.30   -7.24   -5.80    0.07283   -58.08  LEFT      2.02874E-01   -82.38    3.23852E-01    88.35
   55.00   380.00     -12.50   -5.88   -5.03    0.03101   -65.03  LEFT      1.76629E-01   101.29    3.78532E-01   -83.35
   60.00   380.00     -22.49  -12.29  -11.89    0.02100   -72.86  LEFT      5.59482E-02    79.75    1.81037E-01  -104.51
   65.00   380.00     -15.87   -1.98   -1.81    0.00242   -78.57  LEFT      1.19935E-01   -90.06    5.93232E-01    89.23
   70.00   380.00     -25.39   -6.04   -5.99    0.00640   -83.86  LEFT      4.00719E-02    97.89    3.71947E-01   -85.55
   75.00   380.00     -29.89   -8.75   -8.72    0.08372    88.50  RIGHT     2.38644E-02   -26.15    2.72038E-01   -98.89
   80.00   380.00     -18.65   -0.16   -0.10    0.05493    83.97  RIGHT     8.70897E-02   115.20    7.31695E-01    87.38
   85.00   380.00     -15.87   -1.66   -1.49    0.05623    79.44  RIGHT     1.19869E-01   -74.12    6.15901E-01   -91.51
   90.00   380.00    -999.99 -196.80 -196.46    0.00000     0.00            3.10151E-11   106.00    1.07700E-10    87.21
    0.00   390.00     -10.82  -15.49   -9.55    0.00147   -30.29  LEFT      2.14355E-01   123.24    1.25234E-01   -56.95
    5.00   390.00     -11.63  -16.15  -10.32    0.00566   -30.74  LEFT      1.95246E-01   118.00    1.16104E-01   -62.74
   10.00   390.00     -16.28  -20.36  -14.85    0.02478   -32.00  LEFT      1.14381E-01   108.62    7.15196E-02   -74.54
   15.00   390.00     -22.56  -24.98  -20.60    0.01822   -37.14  RIGHT     5.54673E-02   -41.48    4.20192E-02   140.69
   20.00   390.00      -9.26  -11.34   -7.17    0.02011   -38.20  LEFT      2.56532E-01   -65.24    2.01934E-01   112.39
   25.00   390.00      -6.75   -7.68   -4.18    0.04570   -41.93  LEFT      3.42637E-01   -72.88    3.07936E-01   101.86
   30.00   390.00     -15.29  -14.74  -11.99    0.10843   -46.83  LEFT      1.28237E-01   -86.78    1.36512E-01    80.82
   35.00   390.00      -9.32   -7.05   -5.03    0.03070   -52.42  LEFT      2.54732E-01   105.57    3.30822E-01   -78.06
   40.00   390.00      -9.24   -5.25   -3.79    0.05990   -57.82  LEFT      2.57218E-01    94.38    4.07159E-01   -93.22
   45.00   390.00     -12.30   -6.58   -5.55    0.02135   -62.66  LEFT      1.80822E-01   -76.48    3.49444E-01   100.52
   50.00   390.00     -11.13   -2.92   -2.31    0.02819   -68.82  LEFT      2.06824E-01   -93.21    5.32337E-01    82.00
   55.00   390.00     -11.49   -1.45   -1.04    0.02058   -72.57  LEFT      1.98449E-01    95.36    6.30737E-01   -88.76
   60.00   390.00     -22.09   -7.87   -7.71    0.05263   -79.38  RIGHT     5.86141E-02    51.54    3.01091E-01  -112.21
   65.00   390.00     -14.65    2.49    2.57    0.01039   -82.10  RIGHT     1.37977E-01  -101.32    9.92052E-01    83.05
   70.00   390.00     -21.61   -1.51   -1.47    0.01447   -84.42  LEFT      6.18856E-02    97.25    6.26406E-01   -91.25
   75.00   390.00     -24.61   -4.26   -4.22    0.09468    89.09  RIGHT     4.38158E-02   -25.32    4.56434E-01  -105.92
   80.00   390.00     -19.06    4.36    4.38    0.04519    87.13  RIGHT     8.30842E-02   123.15    1.23154E+00    80.97
   85.00   390.00     -17.04    2.88    2.92    0.03981    84.70  RIGHT     1.04792E-01   -74.39    1.03818E+00   -97.83
   90.00   390.00    -999.99 -192.27 -192.15    0.00000     0.00            2.97527E-11   106.90    1.81488E-10    80.76
    0.00   400.00     -11.90  -13.33   -9.55    0.00147   -40.29  LEFT      1.89352E-01   123.26    1.60554E-01   -56.91
    5.00   400.00     -12.66  -13.94  -10.24    0.00607   -40.80  LEFT      1.73438E-01   116.73    1.49724E-01   -63.98
   10.00   400.00     -17.36  -18.17  -14.73    0.02678   -42.30  LEFT      1.01040E-01   105.58    9.19620E-02   -77.50
   15.00   400.00     -22.53  -21.85  -19.17    0.01819   -47.21  RIGHT     5.57159E-02   -44.01    6.01929E-02   138.08
   20.00   400.00      -9.77   -8.63   -6.15    0.01846   -48.77  LEFT      2.41977E-01   -68.37    2.76073E-01   109.50
   25.00   400.00      -7.31   -4.96   -2.97    0.03949   -52.68  LEFT      3.21029E-01   -77.25    4.20793E-01    98.06
   30.00   400.00     -16.09  -12.02  -10.59    0.08015   -58.13  LEFT      1.16874E-01   -94.95    1.86676E-01    74.85
   35.00   400.00      -9.50   -4.11   -3.01    0.02328   -61.75  LEFT      2.49666E-01   101.41    4.64256E-01   -81.79
   40.00   400.00      -9.66   -2.34   -1.60    0.03505   -66.79  LEFT      2.44988E-01    87.36    5.69398E-01   -98.17
   45.00   400.00     -12.12   -3.51   -2.95    0.01811   -69.65  LEFT      1.84641E-01   -80.18    4.97274E-01    96.64
   50.00   400.00     -11.40    0.09    0.39    0.00595   -75.09  LEFT      2.00528E-01  -101.87    7.53031E-01    76.76
   55.00   400.00     -11.26    1.63    1.85    0.01465   -77.25  LEFT      2.03944E-01    90.56    8.99512E-01   -93.34
   60.00   400.00     -21.42   -4.78   -4.68    0.07080   -82.64  RIGHT     6.33164E-02    32.28    4.29937E-01  -118.46
   65.00   400.00     -14.23    5.59    5.64    0.01286   -84.22  RIGHT     1.44839E-01  -109.46    1.41846E+00    77.85
   70.00   400.00     -19.97    1.63    1.66    0.01562   -85.33  LEFT      7.47811E-02    94.79    8.99448E-01   -96.11
   75.00   400.00     -22.43   -1.13   -1.10    0.08562    89.49  RIGHT     5.63346E-02   -27.70    6.54405E-01  -111.76
   80.00   400.00     -19.57    7.50    7.51    0.03573    88.50  RIGHT     7.83061E-02   129.40    1.76807E+00    75.56
   85.00   400.00     -18.53    6.03    6.04    0.02865    87.04  RIGHT     8.82352E-02   -74.13    1.49171E+00  -103.18
   90.00   400.00    -999.99 -189.12 -189.07    0.05532    84.91  RIGHT     2.73516E-11   107.42    2.60742E-10    75.31
    0.00   410.00     -13.44  -11.83   -9.55    0.00147   -50.29  LEFT      1.58596E-01   123.29    1.90995E-01   -56.88
    5.00   410.00     -14.16  -12.39  -10.17    0.00590   -50.82  LEFT      1.45957E-01   115.65    1.79057E-01   -65.04
   10.00   410.00     -18.90  -16.63  -14.61    0.02551   -52.40  LEFT      8.46251E-02   102.97    1.09865E-01   -80.05
   15.00   410.00     -23.18  -19.60  -18.02    0.01775   -56.49  RIGHT     5.16975E-02   -46.08    7.80404E-02   136.13
   20.00   410.00     -10.83   -6.66   -5.26    0.01502   -58.26  LEFT      2.14102E-01   -70.93    3.45979E-01   107.14
   25.00   410.00      -8.42   -3.00   -1.91    0.03062   -61.85  LEFT      2.82594E-01   -80.81    5.27414E-01    94.97
   30.00   410.00     -17.35  -10.04   -9.30    0.05200   -66.83  LEFT      1.01149E-01  -101.72    2.34697E-01    70.07
   35.00   410.00     -10.32   -1.98   -1.39    0.01676   -69.06  LEFT      2.27213E-01    98.05    5.93092E-01   -84.83
   40.00   410.00     -10.65   -0.23    0.15    0.01889   -73.27  LEFT      2.18722E-01    81.75    7.26052E-01  -102.17
   45.00   410.00     -12.69   -1.30   -1.00    0.01452   -74.94  LEFT      1.72816E-01   -83.25    6.41402E-01    93.43
   50.00   410.00     -12.26    2.27    2.42    0.00370   -79.37  RIGHT     1.81718E-01  -108.66    9.67738E-01    72.51
   55.00   410.00     -11.80    3.86    3.97    0.01057   -80.65  LEFT      1.91632E-01    86.66    1.16180E+00   -97.11
   60.00   410.00     -21.38   -2.54   -2.48    0.06773   -84.74  RIGHT     6.35617E-02    19.81    5.56436E-01  -123.47
   65.00   410.00     -14.63    7.83    7.85    0.01190   -85.74  RIGHT     1.38301E-01  -115.56    1.83524E+00    73.58
   70.00   410.00     -19.68    3.89    3.91    0.01403   -86.29  LEFT      7.73142E-02    92.12    1.16678E+00  -100.16
   75.00   410.00     -21.87    1.13    1.15    0.07063    89.72  RIGHT     6.00609E-02   -30.45    8.48397E-01  -116.52
   80.00   410.00     -20.46    9.76    9.77    0.02737    89.19  RIGHT     7.06514E-02   133.77    2.29335E+00    71.09
   85.00   410.00     -20.43    8.29    8.30    0.02059    88.26  RIGHT     7.09495E-02   -73.40    1.93584E+00  -107.61
   90.00   410.00    -999.99 -186.86 -186.84    0.04200    86.78  RIGHT     2.37617E-11   107.67    3.38356E-10    70.81
    0.00   420.00     -15.65  -10.77   -9.55    0.00147   -60.29  LEFT      1.23020E-01   123.34    2.15633E-01   -56.86
    5.00   420.00     -16.34  -11.29  -10.11    0.00519   -60.77  LEFT      1.13609E-01   114.79    2.03050E-01   -65.90
   10.00   420.00     -21.12  -15.54  -14.48    0.02138   -62.27  LEFT      6.55283E-02   100.86    1.24578E-01   -82.12
   15.00   420.00     -24.67  -17.98  -17.14    0.01695   -65.17  RIGHT     4.35234E-02   -47.87    9.40006E-02   134.68
   20.00   420.00     -12.65   -5.26   -4.53    0.01082   -66.88  LEFT      1.73678E-01   -72.97    4.06710E-01   105.31
   25.00   420.00     -10.28   -1.60   -1.04    0.02160   -69.83  LEFT      2.28185E-01   -83.60    6.20167E-01    92.58
   30.00   420.00     -19.31   -8.60   -8.24    0.03047   -73.84  LEFT      8.07129E-02  -107.07    2.76946E-01    66.42
   35.00   420.00     -11.96   -0.46   -0.16    0.01131   -75.11  LEFT      1.88065E-01    95.41    7.06770E-01   -87.20
   40.00   420.00     -12.41    1.29    1.47    0.00927   -78.34  LEFT      1.78509E-01    77.43    8.64293E-01  -105.26
   45.00   420.00     -14.17    0.28    0.43    0.01074   -79.28  LEFT      1.45851E-01   -85.74    7.69317E-01    90.90
   50.00   420.00     -13.92    3.83    3.90    0.00675   -82.63  RIGHT     1.50018E-01  -113.82    1.15802E+00    69.22
   55.00   420.00     -13.25    5.44    5.50    0.00734   -83.38  LEFT      1.62052E-01    83.59    1.39457E+00  -100.08
   60.00   420.00     -22.38   -0.93   -0.90    0.05552   -86.34  RIGHT     5.66670E-02    11.50    6.69207E-01  -127.32
   65.00   420.00     -15.99    9.42    9.44    0.00962   -86.98  RIGHT     1.18246E-01  -120.13    2.20530E+00    70.23
   70.00   420.00     -20.61    5.50    5.51    0.01113   -87.24  LEFT      6.94372E-02    89.68    1.40434E+00  -103.36
   75.00   420.00     -22.66    2.73    2.75    0.05370    89.85  RIGHT     5.48849E-02   -32.99    1.02090E+00  -120.24
   80.00   420.00     -22.05   11.37   11.37    0.01991    89.56  RIGHT     5.88451E-02   136.61    2.76001E+00    67.57
   85.00   420.00     -22.89    9.90    9.91    0.01435    88.98  RIGHT     5.33980E-02   -72.31    2.33041E+00  -111.11
   90.00   420.00    -999.99 -185.25 -185.24    0.03035    87.96  RIGHT     1.90413E-11   107.80    4.07311E-10    67.26
    0.00   430.00     -18.99  -10.07   -9.55    0.00147   -70.29  LEFT      8.37075E-02   123.42    2.33719E-01   -56.84
    5.00   430.00     -19.67  -10.57  -10.06    0.00402   -70.68  LEFT      7.74113E-02   114.20    2.20807E-01   -66.54
   10.00   430.00     -24.52  -14.81  -14.37    0.01511   -71.93  LEFT      4.42702E-02    99.30    1.35506E-01   -83.63
   15.00   430.00     -27.41  -16.89  -16.52    0.01594   -73.44  RIGHT     3.17563E-02   -49.69    1.06634E-01   133.65
   20.00   430.00     -15.67   -4.31   -4.00    0.00640   -74.88  LEFT      1.22631E-01   -74.54    4.53772E-01   104.01
   25.00   430.00     -13.35   -0.64   -0.42    0.01326   -76.99  LEFT      1.60188E-01   -85.67    6.92078E-01    90.87
   30.00   430.00     -22.50   -7.62   -7.48    0.01534   -79.81  LEFT      5.59009E-02  -111.12    3.09962E-01    63.84
   35.00   430.00     -14.86    0.57    0.69    0.00664   -80.40  LEFT      1.34641E-01    93.41    7.95727E-01   -88.90
   40.00   430.00     -15.43    2.31    2.38    0.00380   -82.61  LEFT      1.26109E-01    74.25    9.72442E-01  -107.46
   45.00   430.00     -16.95    1.34    1.41    0.00681   -83.07  LEFT      1.05878E-01   -87.67    8.69760E-01    89.07
   50.00   430.00     -16.87    4.88    4.91    0.00631   -85.34  RIGHT     1.06850E-01  -117.60    1.30723E+00    66.86
   55.00   430.00     -16.03    6.51    6.54    0.00450   -85.74  LEFT      1.17633E-01    81.25    1.57724E+00  -102.23
   60.00   430.00     -24.87    0.15    0.16    0.03912   -87.69  RIGHT     4.25494E-02     5.67    7.57962E-01  -130.07
   65.00   430.00     -18.72   10.50   10.50    0.00678   -88.06  RIGHT     8.63447E-02  -123.50    2.49568E+00    67.81
   70.00   430.00     -23.06    6.59    6.59    0.00755   -88.16  LEFT      5.24163E-02    87.57    1.59083E+00  -105.69
   75.00   430.00     -25.01    3.82    3.82    0.03617    89.92  RIGHT     4.18530E-02   -35.20    1.15635E+00  -122.92
   80.00   430.00     -24.83   12.45   12.46    0.01310    89.78  RIGHT     4.27316E-02   138.39    3.12618E+00    65.03
   85.00   430.00     -26.37   10.99   10.99    0.00922    89.43  RIGHT     3.57984E-02   -70.82    2.64000E+00  -113.64
   90.00   430.00    -999.99 -184.16 -184.16    0.01986    88.79  RIGHT     1.33615E-11   108.01    4.61415E-10    64.69
    0.00   440.00     -25.01   -9.67   -9.55    0.00147   -80.29  LEFT      4.18517E-02   123.68    2.44704E-01   -56.82
    5.00   440.00     -25.72  -10.15  -10.03    0.00255   -80.55  LEFT      3.85549E-02   113.98    2.31650E-01   -66.92
   10.00   440.00     -30.80  -14.39  -14.29    0.00752   -81.41  LEFT      2.14992E-02    98.36    1.42168E-01   -84.56
   15.00   440.00     -32.65  -16.25  -16.15    0.01490   -81.44  RIGHT     1.73619E-02   -52.76    1.14779E-01   133.02
   20.00   440.00     -21.34   -3.76   -3.68    0.00194   -82.47  LEFT      6.38876E-02   -75.93    4.83582E-01   103.22
   25.00   440.00     -19.14   -0.09   -0.04    0.00562   -83.64  LEFT      8.23192E-02   -87.23    7.37572E-01    89.84
   30.00   440.00     -28.59   -7.05   -7.02    0.00459   -85.22  LEFT      2.77301E-02  -114.54    3.30915E-01    62.30
   35.00   440.00     -20.44    1.17    1.20    0.00244   -85.25  LEFT      7.08184E-02    91.76    8.52375E-01   -89.93
   40.00   440.00     -21.23    2.91    2.92    0.00070   -86.44  LEFT      6.47154E-02    71.86    1.04122E+00  -108.78
   45.00   440.00     -22.42    1.96    1.98    0.00278   -86.55  LEFT      5.64085E-02   -89.39    9.33847E-01    87.96
   50.00   440.00     -22.62    5.49    5.50    0.00406   -87.76  RIGHT     5.51387E-02  -120.50    1.40225E+00    65.44
   55.00   440.00     -21.54    7.13    7.14    0.00185   -87.89  LEFT      6.23878E-02    79.36    1.69367E+00  -103.53
   60.00   440.00     -30.29    0.77    0.78    0.02077   -88.93  RIGHT     2.27838E-02     0.32    8.14584E-01  -131.72
   65.00   440.00     -24.25   11.12   11.12    0.00372   -89.05  RIGHT     4.57068E-02  -126.24    2.68066E+00    66.35
   70.00   440.00     -28.31    7.21    7.21    0.00360   -89.06  LEFT      2.86403E-02    85.33    1.70968E+00  -107.10
   75.00   440.00     -30.21    4.44    4.44    0.01848    89.94  RIGHT     2.30023E-02   -37.62    1.24265E+00  -124.54
   80.00   440.00     -30.15   13.08   13.08    0.00670    89.91  RIGHT     2.31633E-02   139.71    3.35940E+00    63.49
   85.00   440.00     -32.23   11.61   11.61    0.00472    89.75  RIGHT     1.82291E-02   -67.94    2.83718E+00  -115.18
   90.00   440.00    -999.99 -183.54 -183.54    0.01009    89.44  RIGHT     6.98871E-12   108.86    4.95872E-10    63.14
    0.00   450.00     -54.97   -9.55   -9.55    0.00147    89.71  LEFT      1.32907E-03   -72.74    2.48254E-01   -56.81
    5.00   450.00     -53.04  -10.02  -10.02    0.00092    89.60  LEFT      1.66017E-03   -74.52    2.35153E-01   -67.04
   10.00   450.00     -51.27  -14.26  -14.26    0.00063    89.19  RIGHT     2.03544E-03   -82.30    1.44256E-01   -84.87
   15.00   450.00     -50.66  -16.03  -16.03    0.01402   -89.30  RIGHT     2.18359E-03   -96.35    1.17683E-01   132.75
   20.00   450.00     -52.95   -3.57   -3.57    0.00253   -89.87  RIGHT     1.67836E-03  -125.22    4.93833E-01   102.95
   25.00   450.00     -54.58    0.09    0.09    0.00161    89.95  RIGHT     1.39147E-03   150.40    7.53059E-01    89.50
   30.00   450.00     -49.21   -6.87   -6.87    0.00404    89.63  RIGHT     2.58009E-03    93.72    3.37957E-01    61.77
   35.00   450.00     -51.08    1.36    1.36    0.00157   -89.90  RIGHT     2.08067E-03    48.46    8.71848E-01   -90.27
   40.00   450.00     -51.24    3.10    3.10    0.00137    89.92  RIGHT     2.04416E-03   -63.77    1.06466E+00  -109.22
   45.00   450.00     -49.95    2.16    2.16    0.00132   -89.88  RIGHT     2.37075E-03  -124.66    9.55908E-01    87.59
   50.00   450.00     -51.41    5.69    5.69    0.00106    89.95  RIGHT     2.00338E-03   114.56    1.43470E+00    64.97
   55.00   450.00     -51.43    7.33    7.33    0.00075   -89.95  RIGHT     1.99888E-03    35.54    1.73361E+00  -103.96
   60.00   450.00     -50.78    0.98    0.98    0.00168    89.89  RIGHT     2.15442E-03   -91.64    8.33903E-01  -132.27
   65.00   450.00     -53.34   11.32   11.32    0.00058   -90.00  RIGHT     1.60491E-03   159.44    2.74399E+00    65.86
   70.00   450.00     -52.40    7.42    7.42    0.00052   -89.95  RIGHT     1.78805E-03    41.83    1.75044E+00  -107.57
   75.00   450.00     -53.68    4.65    4.65    0.00081    89.95  RIGHT     1.54279E-03   -83.41    1.27215E+00  -125.08
   80.00   450.00     -52.51   13.28   13.28    0.00051   -90.00  RIGHT     1.76428E-03   153.74    3.43923E+00    62.97
   85.00   450.00     -52.93   11.82   11.82    0.00053   -89.99  RIGHT     1.68256E-03    -2.45    2.90469E+00  -115.69
   90.00   450.00    -999.99 -183.33 -183.33    0.00069    90.00  RIGHT     3.50956E-13   151.68    5.07666E-10    62.61


   AVERAGE POWER GAIN= 1.39979E+00       SOLID ANGLE USED IN AVERAGING=( 2.0000)*PI STERADIANS.








 ***** DATA CARD NO.  5   EN   0    19    37  1003  0.00000E+00  9.00000E+01  5.00000E+00  1.00000E+01  0.00000E+00  0.00000E+00

 RUN TIME =     0.188
