1



                                 *********************************************

                                    NUMERICAL ELECTROMAGNETICS CODE (NEC-2D)

                                 *********************************************




                                     - - - - COMMENTS - - - -


                                                                                                     
                                                                                                     




                                 - - - STRUCTURE SPECIFICATION - - -

                                     COORDINATES MUST BE INPUT IN
                                     METERS OR BE SCALED TO METERS
                                     BEFORE STRUCTURE INPUT IS ENDED


  WIRE                                                                               NO. OF    FIRST  LAST     TAG
  NO.        X1         Y1         Z1          X2         Y2         Z2      RADIUS   SEG.     SEG.   SEG.     NO.
     1   -2.25000    0.00000    0.00000    -0.10700    0.00000    0.00000    0.00500      4        1     4       1
     2   -0.10700    0.00000    0.00000     0.42900    0.00000    0.00000    0.00500      1        5     5     999
     3    0.42900    0.00000    0.00000     2.25000    0.00000    0.00000    0.00500      4        6     9       1
     4   -2.25000   -0.60000   -0.60000    -2.25000   -0.60000    0.60000    0.00050      6       10    15       2
     5   -2.25000   -0.40000   -0.60000    -2.25000   -0.40000    0.60000    0.00050      6       16    21       2
     6   -2.25000   -0.20000   -0.60000    -2.25000   -0.20000    0.60000    0.00050      6       22    27       2
     7   -2.25000    0.00000   -0.60000    -2.25000    0.00000    0.60000    0.00050      6       28    33       2
     8   -2.25000    0.20000   -0.60000    -2.25000    0.20000    0.60000    0.00050      6       34    39       2
     9   -2.25000    0.40000   -0.60000    -2.25000    0.40000    0.60000    0.00050      6       40    45       2
    10   -2.25000    0.60000   -0.60000    -2.25000    0.60000    0.60000    0.00050      6       46    51       2
    11   -2.25000   -0.60000   -0.60000    -2.25000    0.60000   -0.60000    0.00050      6       52    57       2
    12   -2.25000   -0.60000   -0.40000    -2.25000    0.60000   -0.40000    0.00050      6       58    63       2
    13   -2.25000   -0.60000   -0.20000    -2.25000    0.60000   -0.20000    0.00050      6       64    69       2
    14   -2.25000   -0.60000    0.00000    -2.25000    0.60000    0.00000    0.00050      6       70    75       2
    15   -2.25000   -0.60000    0.20000    -2.25000    0.60000    0.20000    0.00050      6       76    81       2
    16   -2.25000   -0.60000    0.40000    -2.25000    0.60000    0.40000    0.00050      6       82    87       2
    17   -2.25000   -0.60000    0.60000    -2.25000    0.60000    0.60000    0.00050      6       88    93       2
    18    2.25000   -0.60000   -0.60000     2.25000   -0.60000    0.60000    0.00050      6       94    99       3
    19    2.25000   -0.40000   -0.60000     2.25000   -0.40000    0.60000    0.00050      6      100   105       3
    20    2.25000   -0.20000   -0.60000     2.25000   -0.20000    0.60000    0.00050      6      106   111       3
    21    2.25000    0.00000   -0.60000     2.25000    0.00000    0.60000    0.00050      6      112   117       3
    22    2.25000    0.20000   -0.60000     2.25000    0.20000    0.60000    0.00050      6      118   123       3
    23    2.25000    0.40000   -0.60000     2.25000    0.40000    0.60000    0.00050      6      124   129       3
    24    2.25000    0.60000   -0.60000     2.25000    0.60000    0.60000    0.00050      6      130   135       3
    25    2.25000   -0.60000   -0.60000     2.25000    0.60000   -0.60000    0.00050      6      136   141       3
    26    2.25000   -0.60000   -0.40000     2.25000    0.60000   -0.40000    0.00050      6      142   147       3
    27    2.25000   -0.60000   -0.20000     2.25000    0.60000   -0.20000    0.00050      6      148   153       3
    28    2.25000   -0.60000    0.00000     2.25000    0.60000    0.00000    0.00050      6      154   159       3
    29    2.25000   -0.60000    0.20000     2.25000    0.60000    0.20000    0.00050      6      160   165       3
    30    2.25000   -0.60000    0.40000     2.25000    0.60000    0.40000    0.00050      6      166   171       3
    31    2.25000   -0.60000    0.60000     2.25000    0.60000    0.60000    0.00050      6      172   177       3
      THE STRUCTURE HAS BEEN MOVED, MOVE DATA CARD IS -
        0    0   0.00000   0.00000   0.00000   0.00000   0.00000   8.00000   0.00000

   GROUND PLANE SPECIFIED.

   TOTAL SEGMENTS USED=  177     NO. SEG. IN A SYMMETRIC CELL=  177     SYMMETRY FLAG=  0


         - MULTIPLE WIRE JUNCTIONS -
 JUNCTION    SEGMENTS  (- FOR END 1, + FOR END 2)
     1        -1   30  -31   72  -73
     2         9  114 -115  156 -157
     3        10  -11  -58
     4        11  -12  -64
     5        12  -13  -70
     6        13  -14  -76
     7        14  -15  -82
     8       -16   52  -53
     9        16  -17   58  -59
    10        17  -18   64  -65
    11        18  -19   70  -71
    12        19  -20   76  -77
    13        20  -21   82  -83
    14        21   88  -89
    15       -22   53  -54
    16        22  -23   59  -60
    17        23  -24   65  -66
    18        24  -25   71  -72
    19        25  -26   77  -78
    20        26  -27   83  -84
    21        27   89  -90
    22       -28   54  -55
    23        28  -29   60  -61
    24        29  -30   66  -67
    25        31  -32   78  -79
    26        32  -33   84  -85
    27        33   90  -91
    28       -34   55  -56
    29        34  -35   61  -62
    30        35  -36   67  -68
    31        36  -37   73  -74
    32        37  -38   79  -80
    33        38  -39   85  -86
    34        39   91  -92
    35       -40   56  -57
    36        40  -41   62  -63
    37        41  -42   68  -69
    38        42  -43   74  -75
    39        43  -44   80  -81
    40        44  -45   86  -87
    41        45   92  -93
    42        46  -47   63
    43        47  -48   69
    44        48  -49   75
    45        49  -50   81
    46        50  -51   87
    47        94  -95 -142
    48        95  -96 -148
    49        96  -97 -154
    50        97  -98 -160
    51        98  -99 -166
    52      -100  136 -137
    53       100 -101  142 -143
    54       101 -102  148 -149
    55       102 -103  154 -155
    56       103 -104  160 -161
    57       104 -105  166 -167
    58       105  172 -173
    59      -106  137 -138
    60       106 -107  143 -144
    61       107 -108  149 -150
    62       108 -109  155 -156
    63       109 -110  161 -162
    64       110 -111  167 -168
    65       111  173 -174
    66      -112  138 -139
    67       112 -113  144 -145
    68       113 -114  150 -151
    69       115 -116  162 -163
    70       116 -117  168 -169
    71       117  174 -175
    72      -118  139 -140
    73       118 -119  145 -146
    74       119 -120  151 -152
    75       120 -121  157 -158
    76       121 -122  163 -164
    77       122 -123  169 -170
    78       123  175 -176
    79      -124  140 -141
    80       124 -125  146 -147
    81       125 -126  152 -153
    82       126 -127  158 -159
    83       127 -128  164 -165
    84       128 -129  170 -171
    85       129  176 -177
    86       130 -131  147
    87       131 -132  153
    88       132 -133  159
    89       133 -134  165
    90       134 -135  171




                                 - - - - SEGMENTATION DATA - - - -

                                        COORDINATES IN METERS

                         I+ AND I- INDICATE THE SEGMENTS BEFORE AND AFTER I


  SEG.   COORDINATES OF SEG. CENTER     SEG.     ORIENTATION ANGLES    WIRE    CONNECTION DATA   TAG
  NO.       X         Y         Z       LENGTH     ALPHA     BETA      RADIUS    I-   I    I+    NO.
     1  -1.98212   0.00000   8.00000   0.53575    0.00000   0.00000   0.00500    30    1    2      1
     2  -1.44638   0.00000   8.00000   0.53575    0.00000   0.00000   0.00500     1    2    3      1
     3  -0.91063   0.00000   8.00000   0.53575    0.00000   0.00000   0.00500     2    3    4      1
     4  -0.37488   0.00000   8.00000   0.53575    0.00000   0.00000   0.00500     3    4    5      1
     5   0.16100   0.00000   8.00000   0.53600    0.00000   0.00000   0.00500     4    5    6    999
     6   0.65663   0.00000   8.00000   0.45525    0.00000   0.00000   0.00500     5    6    7      1
     7   1.11187   0.00000   8.00000   0.45525    0.00000   0.00000   0.00500     6    7    8      1
     8   1.56712   0.00000   8.00000   0.45525    0.00000   0.00000   0.00500     7    8    9      1
     9   2.02238   0.00000   8.00000   0.45525    0.00000   0.00000   0.00500     8    9 -114      1
    10  -2.25000  -0.60000   7.50000   0.20000   90.00000   0.00000   0.00050   -52   10   11      2
    11  -2.25000  -0.60000   7.70000   0.20000   90.00000   0.00000   0.00050   -58   11   12      2
    12  -2.25000  -0.60000   7.90000   0.20000   90.00000   0.00000   0.00050   -64   12   13      2
    13  -2.25000  -0.60000   8.10000   0.20000   90.00000   0.00000   0.00050   -70   13   14      2
    14  -2.25000  -0.60000   8.30000   0.20000   90.00000   0.00000   0.00050   -76   14   15      2
    15  -2.25000  -0.60000   8.50000   0.20000   90.00000   0.00000   0.00050   -82   15   88      2
    16  -2.25000  -0.40000   7.50000   0.20000   90.00000  90.00000   0.00050    52   16   17      2
    17  -2.25000  -0.40000   7.70000   0.20000   90.00000   0.00000   0.00050    58   17   18      2
    18  -2.25000  -0.40000   7.90000   0.20000   90.00000   0.00000   0.00050    64   18   19      2
    19  -2.25000  -0.40000   8.10000   0.20000   90.00000   0.00000   0.00050    70   19   20      2
    20  -2.25000  -0.40000   8.30000   0.20000   90.00000   0.00000   0.00050    76   20   21      2
    21  -2.25000  -0.40000   8.50000   0.20000   90.00000 -90.00000   0.00050    82   21  -88      2
    22  -2.25000  -0.20000   7.50000   0.20000   90.00000  90.00000   0.00050    53   22   23      2
    23  -2.25000  -0.20000   7.70000   0.20000   90.00000   0.00000   0.00050    59   23   24      2
    24  -2.25000  -0.20000   7.90000   0.20000   90.00000   0.00000   0.00050    65   24   25      2
    25  -2.25000  -0.20000   8.10000   0.20000   90.00000   0.00000   0.00050    71   25   26      2
    26  -2.25000  -0.20000   8.30000   0.20000   90.00000   0.00000   0.00050    77   26   27      2
    27  -2.25000  -0.20000   8.50000   0.20000   90.00000 -90.00000   0.00050    83   27  -89      2
    28  -2.25000   0.00000   7.50000   0.20000   90.00000  90.00000   0.00050    54   28   29      2
    29  -2.25000   0.00000   7.70000   0.20000   90.00000   0.00000   0.00050    60   29   30      2
    30  -2.25000   0.00000   7.90000   0.20000   90.00000  90.00000   0.00050    66   30   31      2
    31  -2.25000   0.00000   8.10000   0.20000   90.00000 -90.00000   0.00050    72   31   32      2
    32  -2.25000   0.00000   8.30000   0.20000   90.00000   0.00000   0.00050    78   32   33      2
    33  -2.25000   0.00000   8.50000   0.20000   90.00000 -90.00000   0.00050    84   33  -90      2
    34  -2.25000   0.20000   7.50000   0.20000   90.00000  90.00000   0.00050    55   34   35      2
    35  -2.25000   0.20000   7.70000   0.20000   90.00000   0.00000   0.00050    61   35   36      2
    36  -2.25000   0.20000   7.90000   0.20000   90.00000   0.00000   0.00050    67   36   37      2
    37  -2.25000   0.20000   8.10000   0.20000   90.00000   0.00000   0.00050    73   37   38      2
    38  -2.25000   0.20000   8.30000   0.20000   90.00000   0.00000   0.00050    79   38   39      2
    39  -2.25000   0.20000   8.50000   0.20000   90.00000 -90.00000   0.00050    85   39  -91      2
    40  -2.25000   0.40000   7.50000   0.20000   90.00000  90.00000   0.00050    56   40   41      2
    41  -2.25000   0.40000   7.70000   0.20000   90.00000   0.00000   0.00050    62   41   42      2
    42  -2.25000   0.40000   7.90000   0.20000   90.00000   0.00000   0.00050    68   42   43      2
    43  -2.25000   0.40000   8.10000   0.20000   90.00000   0.00000   0.00050    74   43   44      2
    44  -2.25000   0.40000   8.30000   0.20000   90.00000   0.00000   0.00050    80   44   45      2
    45  -2.25000   0.40000   8.50000   0.20000   90.00000 -90.00000   0.00050    86   45  -92      2
    46  -2.25000   0.60000   7.50000   0.20000   90.00000   0.00000   0.00050    57   46   47      2
    47  -2.25000   0.60000   7.70000   0.20000   90.00000   0.00000   0.00050    63   47   48      2
    48  -2.25000   0.60000   7.90000   0.20000   90.00000   0.00000   0.00050    69   48   49      2
    49  -2.25000   0.60000   8.10000   0.20000   90.00000   0.00000   0.00050    75   49   50      2
    50  -2.25000   0.60000   8.30000   0.20000   90.00000   0.00000   0.00050    81   50   51      2
    51  -2.25000   0.60000   8.50000   0.20000   90.00000   0.00000   0.00050    87   51  -93      2
    52  -2.25000  -0.50000   7.40000   0.20000    0.00000  90.00000   0.00050   -10   52   53      2
    53  -2.25000  -0.30000   7.40000   0.20000    0.00000  90.00000   0.00050   -16   53   54      2
    54  -2.25000  -0.10000   7.40000   0.20000    0.00000  90.00000   0.00050   -22   54   55      2
    55  -2.25000   0.10000   7.40000   0.20000    0.00000  90.00000   0.00050   -28   55   56      2
    56  -2.25000   0.30000   7.40000   0.20000    0.00000  90.00000   0.00050   -34   56   57      2
    57  -2.25000   0.50000   7.40000   0.20000    0.00000  90.00000   0.00050   -40   57   46      2
    58  -2.25000  -0.50000   7.60000   0.20000    0.00000  90.00000   0.00050    10   58   59      2
    59  -2.25000  -0.30000   7.60000   0.20000    0.00000  90.00000   0.00050    16   59   60      2
    60  -2.25000  -0.10000   7.60000   0.20000    0.00000  90.00000   0.00050    22   60   61      2
    61  -2.25000   0.10000   7.60000   0.20000    0.00000  90.00000   0.00050    28   61   62      2
    62  -2.25000   0.30000   7.60000   0.20000    0.00000  90.00000   0.00050    34   62   63      2
    63  -2.25000   0.50000   7.60000   0.20000    0.00000  90.00000   0.00050    40   63  -46      2
    64  -2.25000  -0.50000   7.80000   0.20000    0.00000  90.00000   0.00050    11   64   65      2
    65  -2.25000  -0.30000   7.80000   0.20000    0.00000  90.00000   0.00050    17   65   66      2
    66  -2.25000  -0.10000   7.80000   0.20000    0.00000  90.00000   0.00050    23   66   67      2
    67  -2.25000   0.10000   7.80000   0.20000    0.00000  90.00000   0.00050    29   67   68      2
    68  -2.25000   0.30000   7.80000   0.20000    0.00000  90.00000   0.00050    35   68   69      2
    69  -2.25000   0.50000   7.80000   0.20000    0.00000  90.00000   0.00050    41   69  -47      2
    70  -2.25000  -0.50000   8.00000   0.20000    0.00000  90.00000   0.00050    12   70   71      2
    71  -2.25000  -0.30000   8.00000   0.20000    0.00000  90.00000   0.00050    18   71   72      2
    72  -2.25000  -0.10000   8.00000   0.20000    0.00000  90.00000   0.00050    24   72   73      2
    73  -2.25000   0.10000   8.00000   0.20000    0.00000  90.00000   0.00050    -1   73   74      2
    74  -2.25000   0.30000   8.00000   0.20000    0.00000  90.00000   0.00050    36   74   75      2
    75  -2.25000   0.50000   8.00000   0.20000    0.00000  90.00000   0.00050    42   75  -48      2
    76  -2.25000  -0.50000   8.20000   0.20000    0.00000  90.00000   0.00050    13   76   77      2
    77  -2.25000  -0.30000   8.20000   0.20000    0.00000  90.00000   0.00050    19   77   78      2
    78  -2.25000  -0.10000   8.20000   0.20000    0.00000  90.00000   0.00050    25   78   79      2
    79  -2.25000   0.10000   8.20000   0.20000    0.00000  90.00000   0.00050    31   79   80      2
    80  -2.25000   0.30000   8.20000   0.20000    0.00000  90.00000   0.00050    37   80   81      2
    81  -2.25000   0.50000   8.20000   0.20000    0.00000  90.00000   0.00050    43   81  -49      2
    82  -2.25000  -0.50000   8.40000   0.20000    0.00000  90.00000   0.00050    14   82   83      2
    83  -2.25000  -0.30000   8.40000   0.20000    0.00000  90.00000   0.00050    20   83   84      2
    84  -2.25000  -0.10000   8.40000   0.20000    0.00000  90.00000   0.00050    26   84   85      2
    85  -2.25000   0.10000   8.40000   0.20000    0.00000  90.00000   0.00050    32   85   86      2
    86  -2.25000   0.30000   8.40000   0.20000    0.00000  90.00000   0.00050    38   86   87      2
    87  -2.25000   0.50000   8.40000   0.20000    0.00000  90.00000   0.00050    44   87  -50      2
    88  -2.25000  -0.50000   8.60000   0.20000    0.00000  90.00000   0.00050    15   88   89      2
    89  -2.25000  -0.30000   8.60000   0.20000    0.00000  90.00000   0.00050    21   89   90      2
    90  -2.25000  -0.10000   8.60000   0.20000    0.00000  90.00000   0.00050    27   90   91      2
    91  -2.25000   0.10000   8.60000   0.20000    0.00000  90.00000   0.00050    33   91   92      2
    92  -2.25000   0.30000   8.60000   0.20000    0.00000  90.00000   0.00050    39   92   93      2
    93  -2.25000   0.50000   8.60000   0.20000    0.00000  90.00000   0.00050    45   93  -51      2
    94   2.25000  -0.60000   7.50000   0.20000   90.00000   0.00000   0.00050  -136   94   95      3
    95   2.25000  -0.60000   7.70000   0.20000   90.00000   0.00000   0.00050  -142   95   96      3
    96   2.25000  -0.60000   7.90000   0.20000   90.00000   0.00000   0.00050  -148   96   97      3
    97   2.25000  -0.60000   8.10000   0.20000   90.00000   0.00000   0.00050  -154   97   98      3
    98   2.25000  -0.60000   8.30000   0.20000   90.00000   0.00000   0.00050  -160   98   99      3
    99   2.25000  -0.60000   8.50000   0.20000   90.00000   0.00000   0.00050  -166   99  172      3
   100   2.25000  -0.40000   7.50000   0.20000   90.00000  90.00000   0.00050   136  100  101      3
   101   2.25000  -0.40000   7.70000   0.20000   90.00000   0.00000   0.00050   142  101  102      3
   102   2.25000  -0.40000   7.90000   0.20000   90.00000   0.00000   0.00050   148  102  103      3
   103   2.25000  -0.40000   8.10000   0.20000   90.00000   0.00000   0.00050   154  103  104      3
   104   2.25000  -0.40000   8.30000   0.20000   90.00000   0.00000   0.00050   160  104  105      3
   105   2.25000  -0.40000   8.50000   0.20000   90.00000 -90.00000   0.00050   166  105 -172      3
   106   2.25000  -0.20000   7.50000   0.20000   90.00000  90.00000   0.00050   137  106  107      3
   107   2.25000  -0.20000   7.70000   0.20000   90.00000   0.00000   0.00050   143  107  108      3
   108   2.25000  -0.20000   7.90000   0.20000   90.00000   0.00000   0.00050   149  108  109      3
   109   2.25000  -0.20000   8.10000   0.20000   90.00000   0.00000   0.00050   155  109  110      3
   110   2.25000  -0.20000   8.30000   0.20000   90.00000   0.00000   0.00050   161  110  111      3
   111   2.25000  -0.20000   8.50000   0.20000   90.00000 -90.00000   0.00050   167  111 -173      3
   112   2.25000   0.00000   7.50000   0.20000   90.00000  90.00000   0.00050   138  112  113      3
   113   2.25000   0.00000   7.70000   0.20000   90.00000   0.00000   0.00050   144  113  114      3
   114   2.25000   0.00000   7.90000   0.20000   90.00000  90.00000   0.00050   150  114  115      3
   115   2.25000   0.00000   8.10000   0.20000   90.00000 -90.00000   0.00050   156  115  116      3
   116   2.25000   0.00000   8.30000   0.20000   90.00000   0.00000   0.00050   162  116  117      3
   117   2.25000   0.00000   8.50000   0.20000   90.00000 -90.00000   0.00050   168  117 -174      3
   118   2.25000   0.20000   7.50000   0.20000   90.00000  90.00000   0.00050   139  118  119      3
   119   2.25000   0.20000   7.70000   0.20000   90.00000   0.00000   0.00050   145  119  120      3
   120   2.25000   0.20000   7.90000   0.20000   90.00000   0.00000   0.00050   151  120  121      3
   121   2.25000   0.20000   8.10000   0.20000   90.00000   0.00000   0.00050   157  121  122      3
   122   2.25000   0.20000   8.30000   0.20000   90.00000   0.00000   0.00050   163  122  123      3
   123   2.25000   0.20000   8.50000   0.20000   90.00000 -90.00000   0.00050   169  123 -175      3
   124   2.25000   0.40000   7.50000   0.20000   90.00000  90.00000   0.00050   140  124  125      3
   125   2.25000   0.40000   7.70000   0.20000   90.00000   0.00000   0.00050   146  125  126      3
   126   2.25000   0.40000   7.90000   0.20000   90.00000   0.00000   0.00050   152  126  127      3
   127   2.25000   0.40000   8.10000   0.20000   90.00000   0.00000   0.00050   158  127  128      3
   128   2.25000   0.40000   8.30000   0.20000   90.00000   0.00000   0.00050   164  128  129      3
   129   2.25000   0.40000   8.50000   0.20000   90.00000 -90.00000   0.00050   170  129 -176      3
   130   2.25000   0.60000   7.50000   0.20000   90.00000   0.00000   0.00050   141  130  131      3
   131   2.25000   0.60000   7.70000   0.20000   90.00000   0.00000   0.00050   147  131  132      3
   132   2.25000   0.60000   7.90000   0.20000   90.00000   0.00000   0.00050   153  132  133      3
   133   2.25000   0.60000   8.10000   0.20000   90.00000   0.00000   0.00050   159  133  134      3
   134   2.25000   0.60000   8.30000   0.20000   90.00000   0.00000   0.00050   165  134  135      3
   135   2.25000   0.60000   8.50000   0.20000   90.00000   0.00000   0.00050   171  135 -177      3
   136   2.25000  -0.50000   7.40000   0.20000    0.00000  90.00000   0.00050   -94  136  137      3
   137   2.25000  -0.30000   7.40000   0.20000    0.00000  90.00000   0.00050  -100  137  138      3
   138   2.25000  -0.10000   7.40000   0.20000    0.00000  90.00000   0.00050  -106  138  139      3
   139   2.25000   0.10000   7.40000   0.20000    0.00000  90.00000   0.00050  -112  139  140      3
   140   2.25000   0.30000   7.40000   0.20000    0.00000  90.00000   0.00050  -118  140  141      3
   141   2.25000   0.50000   7.40000   0.20000    0.00000  90.00000   0.00050  -124  141  130      3
   142   2.25000  -0.50000   7.60000   0.20000    0.00000  90.00000   0.00050    94  142  143      3
   143   2.25000  -0.30000   7.60000   0.20000    0.00000  90.00000   0.00050   100  143  144      3
   144   2.25000  -0.10000   7.60000   0.20000    0.00000  90.00000   0.00050   106  144  145      3
   145   2.25000   0.10000   7.60000   0.20000    0.00000  90.00000   0.00050   112  145  146      3
   146   2.25000   0.30000   7.60000   0.20000    0.00000  90.00000   0.00050   118  146  147      3
   147   2.25000   0.50000   7.60000   0.20000    0.00000  90.00000   0.00050   124  147 -130      3
   148   2.25000  -0.50000   7.80000   0.20000    0.00000  90.00000   0.00050    95  148  149      3
   149   2.25000  -0.30000   7.80000   0.20000    0.00000  90.00000   0.00050   101  149  150      3
   150   2.25000  -0.10000   7.80000   0.20000    0.00000  90.00000   0.00050   107  150  151      3
   151   2.25000   0.10000   7.80000   0.20000    0.00000  90.00000   0.00050   113  151  152      3
   152   2.25000   0.30000   7.80000   0.20000    0.00000  90.00000   0.00050   119  152  153      3
   153   2.25000   0.50000   7.80000   0.20000    0.00000  90.00000   0.00050   125  153 -131      3
   154   2.25000  -0.50000   8.00000   0.20000    0.00000  90.00000   0.00050    96  154  155      3
   155   2.25000  -0.30000   8.00000   0.20000    0.00000  90.00000   0.00050   102  155  156      3
   156   2.25000  -0.10000   8.00000   0.20000    0.00000  90.00000   0.00050   108  156  157      3
   157   2.25000   0.10000   8.00000   0.20000    0.00000  90.00000   0.00050     9  157  158      3
   158   2.25000   0.30000   8.00000   0.20000    0.00000  90.00000   0.00050   120  158  159      3
   159   2.25000   0.50000   8.00000   0.20000    0.00000  90.00000   0.00050   126  159 -132      3
   160   2.25000  -0.50000   8.20000   0.20000    0.00000  90.00000   0.00050    97  160  161      3
   161   2.25000  -0.30000   8.20000   0.20000    0.00000  90.00000   0.00050   103  161  162      3
   162   2.25000  -0.10000   8.20000   0.20000    0.00000  90.00000   0.00050   109  162  163      3
   163   2.25000   0.10000   8.20000   0.20000    0.00000  90.00000   0.00050   115  163  164      3
   164   2.25000   0.30000   8.20000   0.20000    0.00000  90.00000   0.00050   121  164  165      3
   165   2.25000   0.50000   8.20000   0.20000    0.00000  90.00000   0.00050   127  165 -133      3
   166   2.25000  -0.50000   8.40000   0.20000    0.00000  90.00000   0.00050    98  166  167      3
   167   2.25000  -0.30000   8.40000   0.20000    0.00000  90.00000   0.00050   104  167  168      3
   168   2.25000  -0.10000   8.40000   0.20000    0.00000  90.00000   0.00050   110  168  169      3
   169   2.25000   0.10000   8.40000   0.20000    0.00000  90.00000   0.00050   116  169  170      3
   170   2.25000   0.30000   8.40000   0.20000    0.00000  90.00000   0.00050   122  170  171      3
   171   2.25000   0.50000   8.40000   0.20000    0.00000  90.00000   0.00050   128  171 -134      3
   172   2.25000  -0.50000   8.60000   0.20000    0.00000  90.00000   0.00050    99  172  173      3
   173   2.25000  -0.30000   8.60000   0.20000    0.00000  90.00000   0.00050   105  173  174      3
   174   2.25000  -0.10000   8.60000   0.20000    0.00000  90.00000   0.00050   111  174  175      3
   175   2.25000   0.10000   8.60000   0.20000    0.00000  90.00000   0.00050   117  175  176      3
   176   2.25000   0.30000   8.60000   0.20000    0.00000  90.00000   0.00050   123  176  177      3
   177   2.25000   0.50000   8.60000   0.20000    0.00000  90.00000   0.00050   129  177 -135      3






 ***** DATA CARD NO.  1   GN   2     0     0     0  1.10000E+01  1.00000E-02  0.00000E+00  0.00000E+00  0.00000E+00  0.00000E+00
 ***** DATA CARD NO.  2   EX   0   999     1     0  1.00000E+00  0.00000E+00  0.00000E+00  0.00000E+00  0.00000E+00  0.00000E+00
 ***** DATA CARD NO.  3   FR   0     1     0     0  1.40000E+01  0.00000E+00  0.00000E+00  0.00000E+00  0.00000E+00  0.00000E+00
 ***** DATA CARD NO.  4   RP   0    19    37  1003  0.00000E+00  0.00000E+00  5.00000E+00  1.00000E+01  0.00000E+00  0.00000E+00




                                 - - - - - - FREQUENCY - - - - - -

                                    FREQUENCY= 1.4000E+01 MHZ
                                    WAVELENGTH= 2.1414E+01 METERS




                    APPROXIMATE INTEGRATION EMPLOYED FOR SEGMENTS MORE THAN   1.000 WAVELENGTHS APART



                               - - - STRUCTURE IMPEDANCE LOADING - - -

                                   THIS STRUCTURE IS NOT LOADED



                                  - - - ANTENNA ENVIRONMENT - - -

                                        FINITE GROUND.  SOMMERFELD SOLUTION
                                        RELATIVE DIELECTRIC CONST.= 11.000
                                        CONDUCTIVITY= 1.000E-02 MHOS/METER
                                        COMPLEX DIELECTRIC CONSTANT= 1.10000E+01-1.28400E+01



                                - - - MATRIX TIMING - - -

                        FILL=    0.141 SEC.,  FACTOR=    0.016 SEC.



                                          - - - ANTENNA INPUT PARAMETERS - - -

   TAG   SEG.    VOLTAGE (VOLTS)         CURRENT (AMPS)         IMPEDANCE (OHMS)        ADMITTANCE (MHOS)      POWER
   NO.   NO.    REAL        IMAG.       REAL        IMAG.       REAL        IMAG.       REAL        IMAG.     (WATTS)
   999     5 1.00000E+00 0.00000E+00 2.72247E-02-1.88083E-03 3.65569E+01 2.52555E+00 2.72247E-02-1.88083E-03 1.36123E-02



                             - - - CURRENTS AND LOCATION - - -

                                 DISTANCES IN WAVELENGTHS


  SEG.  TAG    COORD. OF SEG. CENTER     SEG.            - - - CURRENT (AMPS) - - -
  NO.   NO.     X        Y        Z      LENGTH     REAL        IMAG.       MAG.        PHASE
     1    1  -0.0926   0.0000   0.3736  0.02502   2.4501E-02 -2.2040E-03  2.4600E-02   -5.140
     2    1  -0.0675   0.0000   0.3736  0.02502   2.5535E-02 -2.2386E-03  2.5633E-02   -5.010
     3    1  -0.0425   0.0000   0.3736  0.02502   2.6519E-02 -2.2079E-03  2.6611E-02   -4.759
     4    1  -0.0175   0.0000   0.3736  0.02502   2.7120E-02 -2.0744E-03  2.7199E-02   -4.374
     5  999   0.0075   0.0000   0.3736  0.02503   2.7225E-02 -1.8808E-03  2.7290E-02   -3.952
     6    1   0.0307   0.0000   0.3736  0.02126   2.6866E-02 -2.0110E-03  2.6941E-02   -4.281
     7    1   0.0519   0.0000   0.3736  0.02126   2.6189E-02 -2.0960E-03  2.6273E-02   -4.576
     8    1   0.0732   0.0000   0.3736  0.02126   2.5292E-02 -2.1093E-03  2.5380E-02   -4.767
     9    1   0.0944   0.0000   0.3736  0.02126   2.4439E-02 -2.0802E-03  2.4528E-02   -4.865
    10    2  -0.1051  -0.0280   0.3502  0.00934   2.4282E-04 -2.1234E-05  2.4374E-04   -4.998
    11    2  -0.1051  -0.0280   0.3596  0.00934   2.6058E-04 -2.3218E-05  2.6161E-04   -5.092
    12    2  -0.1051  -0.0280   0.3689  0.00934   1.6878E-04 -1.4900E-05  1.6944E-04   -5.045
    13    2  -0.1051  -0.0280   0.3783  0.00934  -1.6857E-04  1.5056E-05  1.6924E-04  174.896
    14    2  -0.1051  -0.0280   0.3876  0.00934  -2.6002E-04  2.3544E-05  2.6108E-04  174.826
    15    2  -0.1051  -0.0280   0.3969  0.00934  -2.4195E-04  2.1707E-05  2.4292E-04  174.873
    16    2  -0.1051  -0.0187   0.3502  0.00934   5.6301E-04 -5.0888E-05  5.6531E-04   -5.165
    17    2  -0.1051  -0.0187   0.3596  0.00934   8.4278E-04 -7.6192E-05  8.4622E-04   -5.166
    18    2  -0.1051  -0.0187   0.3689  0.00934   5.6343E-04 -5.0770E-05  5.6571E-04   -5.149
    19    2  -0.1051  -0.0187   0.3783  0.00934  -5.6658E-04  4.9298E-05  5.6872E-04  175.027
    20    2  -0.1051  -0.0187   0.3876  0.00934  -8.4576E-04  7.4795E-05  8.4906E-04  174.946
    21    2  -0.1051  -0.0187   0.3969  0.00934  -5.6529E-04  4.9805E-05  5.6748E-04  174.965
    22    2  -0.1051  -0.0093   0.3502  0.00934   6.1557E-04 -5.5931E-05  6.1810E-04   -5.192
    23    2  -0.1051  -0.0093   0.3596  0.00934   1.3798E-03 -1.2547E-04  1.3855E-03   -5.196
    24    2  -0.1051  -0.0093   0.3689  0.00934   1.5806E-03 -1.4392E-04  1.5871E-03   -5.203
    25    2  -0.1051  -0.0093   0.3783  0.00934  -1.5832E-03  1.4264E-04  1.5896E-03  174.852
    26    2  -0.1051  -0.0093   0.3876  0.00934  -1.3821E-03  1.2435E-04  1.3877E-03  174.859
    27    2  -0.1051  -0.0093   0.3969  0.00934  -6.1691E-04  5.5262E-05  6.1938E-04  174.881
    28    2  -0.1051   0.0000   0.3502  0.00934   8.4726E-04 -7.6219E-05  8.5068E-04   -5.140
    29    2  -0.1051   0.0000   0.3596  0.00934   2.4421E-03 -2.1866E-04  2.4518E-03   -5.117
    30    2  -0.1051   0.0000   0.3689  0.00934   5.9739E-03 -5.3930E-04  5.9982E-03   -5.158
    31    2  -0.1051   0.0000   0.3783  0.00934  -5.9763E-03  5.3808E-04  6.0005E-03  174.855
    32    2  -0.1051   0.0000   0.3876  0.00934  -2.4442E-03  2.1763E-04  2.4538E-03  174.912
    33    2  -0.1051   0.0000   0.3969  0.00934  -8.4843E-04  7.5625E-05  8.5180E-04  174.906
    34    2  -0.1051   0.0093   0.3502  0.00934   6.1557E-04 -5.5931E-05  6.1810E-04   -5.192
    35    2  -0.1051   0.0093   0.3596  0.00934   1.3798E-03 -1.2547E-04  1.3855E-03   -5.196
    36    2  -0.1051   0.0093   0.3689  0.00934   1.5806E-03 -1.4392E-04  1.5871E-03   -5.203
    37    2  -0.1051   0.0093   0.3783  0.00934  -1.5832E-03  1.4264E-04  1.5896E-03  174.852
    38    2  -0.1051   0.0093   0.3876  0.00934  -1.3821E-03  1.2435E-04  1.3877E-03  174.859
    39    2  -0.1051   0.0093   0.3969  0.00934  -6.1691E-04  5.5262E-05  6.1938E-04  174.881
    40    2  -0.1051   0.0187   0.3502  0.00934   5.6301E-04 -5.0888E-05  5.6531E-04   -5.165
    41    2  -0.1051   0.0187   0.3596  0.00934   8.4278E-04 -7.6192E-05  8.4622E-04   -5.166
    42    2  -0.1051   0.0187   0.3689  0.00934   5.6343E-04 -5.0770E-05  5.6571E-04   -5.149
    43    2  -0.1051   0.0187   0.3783  0.00934  -5.6658E-04  4.9298E-05  5.6872E-04  175.027
    44    2  -0.1051   0.0187   0.3876  0.00934  -8.4576E-04  7.4795E-05  8.4906E-04  174.946
    45    2  -0.1051   0.0187   0.3969  0.00934  -5.6529E-04  4.9805E-05  5.6748E-04  174.965
    46    2  -0.1051   0.0280   0.3502  0.00934   2.4282E-04 -2.1234E-05  2.4374E-04   -4.998
    47    2  -0.1051   0.0280   0.3596  0.00934   2.6058E-04 -2.3218E-05  2.6161E-04   -5.092
    48    2  -0.1051   0.0280   0.3689  0.00934   1.6878E-04 -1.4900E-05  1.6944E-04   -5.045
    49    2  -0.1051   0.0280   0.3783  0.00934  -1.6857E-04  1.5056E-05  1.6924E-04  174.896
    50    2  -0.1051   0.0280   0.3876  0.00934  -2.6002E-04  2.3544E-05  2.6108E-04  174.826
    51    2  -0.1051   0.0280   0.3969  0.00934  -2.4195E-04  2.1707E-05  2.4292E-04  174.873
    52    2  -0.1051  -0.0233   0.3456  0.00934   2.4148E-04 -2.2208E-05  2.4250E-04   -5.254
    53    2  -0.1051  -0.0140   0.3456  0.00934   2.6004E-04 -2.3659E-05  2.6112E-04   -5.199
    54    2  -0.1051  -0.0047   0.3456  0.00934   1.6862E-04 -1.5053E-05  1.6929E-04   -5.102
    55    2  -0.1051   0.0047   0.3456  0.00934  -1.6862E-04  1.5053E-05  1.6929E-04  174.898
    56    2  -0.1051   0.0140   0.3456  0.00934  -2.6004E-04  2.3659E-05  2.6112E-04  174.801
    57    2  -0.1051   0.0233   0.3456  0.00934  -2.4148E-04  2.2208E-05  2.4250E-04  174.746
    58    2  -0.1051  -0.0233   0.3549  0.00934   5.6400E-04 -5.0233E-05  5.6623E-04   -5.090
    59    2  -0.1051  -0.0140   0.3549  0.00934   8.4408E-04 -7.5475E-05  8.4745E-04   -5.110
    60    2  -0.1051  -0.0047   0.3549  0.00934   5.6494E-04 -5.0028E-05  5.6716E-04   -5.061
    61    2  -0.1051   0.0047   0.3549  0.00934  -5.6495E-04  5.0028E-05  5.6716E-04  174.939
    62    2  -0.1051   0.0140   0.3549  0.00934  -8.4408E-04  7.5475E-05  8.4745E-04  174.890
    63    2  -0.1051   0.0233   0.3549  0.00934  -5.6400E-04  5.0233E-05  5.6623E-04  174.910
    64    2  -0.1051  -0.0233   0.3642  0.00934   6.1629E-04 -5.5424E-05  6.1878E-04   -5.139
    65    2  -0.1051  -0.0140   0.3642  0.00934   1.3809E-03 -1.2483E-04  1.3866E-03   -5.165
    66    2  -0.1051  -0.0047   0.3642  0.00934   1.5819E-03 -1.4326E-04  1.5883E-03   -5.175
    67    2  -0.1051   0.0047   0.3642  0.00934  -1.5819E-03  1.4326E-04  1.5883E-03  174.825
    68    2  -0.1051   0.0140   0.3642  0.00934  -1.3809E-03  1.2483E-04  1.3866E-03  174.835
    69    2  -0.1051   0.0233   0.3642  0.00934  -6.1629E-04  5.5424E-05  6.1878E-04  174.861
    70    2  -0.1051  -0.0233   0.3736  0.00934   8.4788E-04 -7.5773E-05  8.5126E-04   -5.107
    71    2  -0.1051  -0.0140   0.3736  0.00934   2.4431E-03 -2.1804E-04  2.4528E-03   -5.100
    72    2  -0.1051  -0.0047   0.3736  0.00934   5.9751E-03 -5.3865E-04  5.9993E-03   -5.151
    73    2  -0.1051   0.0047   0.3736  0.00934  -5.9751E-03  5.3865E-04  5.9993E-03  174.849
    74    2  -0.1051   0.0140   0.3736  0.00934  -2.4431E-03  2.1804E-04  2.4528E-03  174.900
    75    2  -0.1051   0.0233   0.3736  0.00934  -8.4788E-04  7.5773E-05  8.5126E-04  174.893
    76    2  -0.1051  -0.0233   0.3829  0.00934   6.1626E-04 -5.5447E-05  6.1875E-04   -5.141
    77    2  -0.1051  -0.0140   0.3829  0.00934   1.3811E-03 -1.2478E-04  1.3867E-03   -5.163
    78    2  -0.1051  -0.0047   0.3829  0.00934   1.5819E-03 -1.4323E-04  1.5884E-03   -5.174
    79    2  -0.1051   0.0047   0.3829  0.00934  -1.5819E-03  1.4323E-04  1.5884E-03  174.826
    80    2  -0.1051   0.0140   0.3829  0.00934  -1.3811E-03  1.2478E-04  1.3867E-03  174.837
    81    2  -0.1051   0.0233   0.3829  0.00934  -6.1626E-04  5.5447E-05  6.1875E-04  174.859
    82    2  -0.1051  -0.0233   0.3923  0.00934   5.6440E-04 -5.0056E-05  5.6661E-04   -5.068
    83    2  -0.1051  -0.0140   0.3923  0.00934   8.4451E-04 -7.5275E-05  8.4785E-04   -5.094
    84    2  -0.1051  -0.0047   0.3923  0.00934   5.6508E-04 -4.9961E-05  5.6729E-04   -5.053
    85    2  -0.1051   0.0047   0.3923  0.00934  -5.6508E-04  4.9961E-05  5.6729E-04  174.947
    86    2  -0.1051   0.0140   0.3923  0.00934  -8.4451E-04  7.5275E-05  8.4785E-04  174.906
    87    2  -0.1051   0.0233   0.3923  0.00934  -5.6440E-04  5.0056E-05  5.6661E-04  174.932
    88    2  -0.1051  -0.0233   0.4016  0.00934   2.4316E-04 -2.1353E-05  2.4409E-04   -5.019
    89    2  -0.1051  -0.0140   0.4016  0.00934   2.6050E-04 -2.3392E-05  2.6155E-04   -5.131
    90    2  -0.1051  -0.0047   0.4016  0.00934   1.6871E-04 -1.4988E-05  1.6938E-04   -5.077
    91    2  -0.1051   0.0047   0.4016  0.00934  -1.6871E-04  1.4988E-05  1.6938E-04  174.923
    92    2  -0.1051   0.0140   0.4016  0.00934  -2.6050E-04  2.3392E-05  2.6155E-04  174.869
    93    2  -0.1051   0.0233   0.4016  0.00934  -2.4316E-04  2.1353E-05  2.4409E-04  174.981
    94    3   0.1051  -0.0280   0.3502  0.00934  -2.4280E-04  2.0061E-05  2.4363E-04  175.277
    95    3   0.1051  -0.0280   0.3596  0.00934  -2.6064E-04  2.1906E-05  2.6156E-04  175.196
    96    3   0.1051  -0.0280   0.3689  0.00934  -1.6898E-04  1.4064E-05  1.6957E-04  175.243
    97    3   0.1051  -0.0280   0.3783  0.00934   1.6877E-04 -1.4219E-05  1.6937E-04   -4.816
    98    3   0.1051  -0.0280   0.3876  0.00934   2.6007E-04 -2.2231E-05  2.6102E-04   -4.886
    99    3   0.1051  -0.0280   0.3969  0.00934   2.4194E-04 -2.0532E-05  2.4281E-04   -4.851
   100    3   0.1051  -0.0187   0.3502  0.00934  -5.6288E-04  4.8182E-05  5.6494E-04  175.107
   101    3   0.1051  -0.0187   0.3596  0.00934  -8.4260E-04  7.2105E-05  8.4568E-04  175.109
   102    3   0.1051  -0.0187   0.3689  0.00934  -5.6395E-04  4.8035E-05  5.6599E-04  175.131
   103    3   0.1051  -0.0187   0.3783  0.00934   5.6710E-04 -4.6570E-05  5.6901E-04   -4.695
   104    3   0.1051  -0.0187   0.3876  0.00934   8.4558E-04 -7.0715E-05  8.4853E-04   -4.780
   105    3   0.1051  -0.0187   0.3969  0.00934   5.6516E-04 -4.7104E-05  5.6712E-04   -4.764
   106    3   0.1051  -0.0093   0.3502  0.00934  -6.1535E-04  5.2880E-05  6.1762E-04  175.088
   107    3   0.1051  -0.0093   0.3596  0.00934  -1.3788E-03  1.1865E-04  1.3839E-03  175.081
   108    3   0.1051  -0.0093   0.3689  0.00934  -1.5793E-03  1.3610E-04  1.5852E-03  175.075
   109    3   0.1051  -0.0093   0.3783  0.00934   1.5820E-03 -1.3483E-04  1.5877E-03   -4.871
   110    3   0.1051  -0.0093   0.3876  0.00934   1.3811E-03 -1.1754E-04  1.3860E-03   -4.865
   111    3   0.1051  -0.0093   0.3969  0.00934   6.1670E-04 -5.2214E-05  6.1890E-04   -4.840
   112    3   0.1051   0.0000   0.3502  0.00934  -8.4758E-04  7.2033E-05  8.5063E-04  175.142
   113    3   0.1051   0.0000   0.3596  0.00934  -2.4432E-03  2.0670E-04  2.4520E-03  175.164
   114    3   0.1051   0.0000   0.3689  0.00934  -5.9721E-03  5.0983E-04  5.9938E-03  175.121
   115    3   0.1051   0.0000   0.3783  0.00934   5.9746E-03 -5.0862E-04  5.9962E-03   -4.866
   116    3   0.1051   0.0000   0.3876  0.00934   2.4453E-03 -2.0567E-04  2.4540E-03   -4.808
   117    3   0.1051   0.0000   0.3969  0.00934   8.4875E-04 -7.1442E-05  8.5175E-04   -4.811
   118    3   0.1051   0.0093   0.3502  0.00934  -6.1535E-04  5.2880E-05  6.1762E-04  175.088
   119    3   0.1051   0.0093   0.3596  0.00934  -1.3788E-03  1.1865E-04  1.3839E-03  175.081
   120    3   0.1051   0.0093   0.3689  0.00934  -1.5793E-03  1.3610E-04  1.5852E-03  175.075
   121    3   0.1051   0.0093   0.3783  0.00934   1.5820E-03 -1.3483E-04  1.5877E-03   -4.871
   122    3   0.1051   0.0093   0.3876  0.00934   1.3811E-03 -1.1754E-04  1.3860E-03   -4.865
   123    3   0.1051   0.0093   0.3969  0.00934   6.1670E-04 -5.2214E-05  6.1890E-04   -4.840
   124    3   0.1051   0.0187   0.3502  0.00934  -5.6288E-04  4.8182E-05  5.6494E-04  175.107
   125    3   0.1051   0.0187   0.3596  0.00934  -8.4260E-04  7.2105E-05  8.4568E-04  175.109
   126    3   0.1051   0.0187   0.3689  0.00934  -5.6395E-04  4.8035E-05  5.6599E-04  175.131
   127    3   0.1051   0.0187   0.3783  0.00934   5.6710E-04 -4.6570E-05  5.6901E-04   -4.695
   128    3   0.1051   0.0187   0.3876  0.00934   8.4558E-04 -7.0715E-05  8.4853E-04   -4.780
   129    3   0.1051   0.0187   0.3969  0.00934   5.6516E-04 -4.7104E-05  5.6712E-04   -4.764
   130    3   0.1051   0.0280   0.3502  0.00934  -2.4280E-04  2.0061E-05  2.4363E-04  175.277
   131    3   0.1051   0.0280   0.3596  0.00934  -2.6064E-04  2.1906E-05  2.6156E-04  175.196
   132    3   0.1051   0.0280   0.3689  0.00934  -1.6898E-04  1.4064E-05  1.6957E-04  175.243
   133    3   0.1051   0.0280   0.3783  0.00934   1.6877E-04 -1.4219E-05  1.6937E-04   -4.816
   134    3   0.1051   0.0280   0.3876  0.00934   2.6007E-04 -2.2231E-05  2.6102E-04   -4.886
   135    3   0.1051   0.0280   0.3969  0.00934   2.4194E-04 -2.0532E-05  2.4281E-04   -4.851
   136    3   0.1051  -0.0233   0.3456  0.00934  -2.4146E-04  2.1031E-05  2.4237E-04  175.022
   137    3   0.1051  -0.0140   0.3456  0.00934  -2.6010E-04  2.2346E-05  2.6106E-04  175.089
   138    3   0.1051  -0.0047   0.3456  0.00934  -1.6882E-04  1.4216E-05  1.6942E-04  175.187
   139    3   0.1051   0.0047   0.3456  0.00934   1.6882E-04 -1.4216E-05  1.6942E-04   -4.813
   140    3   0.1051   0.0140   0.3456  0.00934   2.6010E-04 -2.2346E-05  2.6106E-04   -4.911
   141    3   0.1051   0.0233   0.3456  0.00934   2.4146E-04 -2.1031E-05  2.4237E-04   -4.978
   142    3   0.1051  -0.0233   0.3549  0.00934  -5.6387E-04  4.7529E-05  5.6586E-04  175.182
   143    3   0.1051  -0.0140   0.3549  0.00934  -8.4390E-04  7.1391E-05  8.4692E-04  175.165
   144    3   0.1051  -0.0047   0.3549  0.00934  -5.6546E-04  4.7296E-05  5.6744E-04  175.219
   145    3   0.1051   0.0047   0.3549  0.00934   5.6546E-04 -4.7296E-05  5.6744E-04   -4.781
   146    3   0.1051   0.0140   0.3549  0.00934   8.4390E-04 -7.1391E-05  8.4692E-04   -4.835
   147    3   0.1051   0.0233   0.3549  0.00934   5.6387E-04 -4.7529E-05  5.6586E-04   -4.818
   148    3   0.1051  -0.0233   0.3642  0.00934  -6.1608E-04  5.2374E-05  6.1830E-04  175.141
   149    3   0.1051  -0.0140   0.3642  0.00934  -1.3799E-03  1.1802E-04  1.3849E-03  175.112
   150    3   0.1051  -0.0047   0.3642  0.00934  -1.5806E-03  1.3544E-04  1.5864E-03  175.103
   151    3   0.1051   0.0047   0.3642  0.00934   1.5806E-03 -1.3544E-04  1.5864E-03   -4.897
   152    3   0.1051   0.0140   0.3642  0.00934   1.3799E-03 -1.1802E-04  1.3849E-03   -4.888
   153    3   0.1051   0.0233   0.3642  0.00934   6.1608E-04 -5.2374E-05  6.1830E-04   -4.859
   154    3   0.1051  -0.0233   0.3736  0.00934  -8.4820E-04  7.1589E-05  8.5121E-04  175.176
   155    3   0.1051  -0.0140   0.3736  0.00934  -2.4443E-03  2.0608E-04  2.4530E-03  175.181
   156    3   0.1051  -0.0047   0.3736  0.00934  -5.9734E-03  5.0919E-04  5.9950E-03  175.128
   157    3   0.1051   0.0047   0.3736  0.00934   5.9734E-03 -5.0919E-04  5.9950E-03   -4.872
   158    3   0.1051   0.0140   0.3736  0.00934   2.4443E-03 -2.0608E-04  2.4530E-03   -4.819
   159    3   0.1051   0.0233   0.3736  0.00934   8.4820E-04 -7.1589E-05  8.5121E-04   -4.824
   160    3   0.1051  -0.0233   0.3829  0.00934  -6.1604E-04  5.2398E-05  6.1826E-04  175.138
   161    3   0.1051  -0.0140   0.3829  0.00934  -1.3800E-03  1.1797E-04  1.3850E-03  175.114
   162    3   0.1051  -0.0047   0.3829  0.00934  -1.5807E-03  1.3541E-04  1.5865E-03  175.104
   163    3   0.1051   0.0047   0.3829  0.00934   1.5807E-03 -1.3541E-04  1.5865E-03   -4.896
   164    3   0.1051   0.0140   0.3829  0.00934   1.3800E-03 -1.1797E-04  1.3850E-03   -4.886
   165    3   0.1051   0.0233   0.3829  0.00934   6.1604E-04 -5.2398E-05  6.1826E-04   -4.862
   166    3   0.1051  -0.0233   0.3923  0.00934  -5.6427E-04  4.7354E-05  5.6625E-04  175.203
   167    3   0.1051  -0.0140   0.3923  0.00934  -8.4432E-04  7.1192E-05  8.4732E-04  175.180
   168    3   0.1051  -0.0047   0.3923  0.00934  -5.6560E-04  4.7230E-05  5.6757E-04  175.227
   169    3   0.1051   0.0047   0.3923  0.00934   5.6560E-04 -4.7230E-05  5.6757E-04   -4.773
   170    3   0.1051   0.0140   0.3923  0.00934   8.4432E-04 -7.1192E-05  8.4732E-04   -4.820
   171    3   0.1051   0.0233   0.3923  0.00934   5.6427E-04 -4.7354E-05  5.6625E-04   -4.797
   172    3   0.1051  -0.0233   0.4016  0.00934  -2.4314E-04  2.0181E-05  2.4398E-04  175.255
   173    3   0.1051  -0.0140   0.4016  0.00934  -2.6055E-04  2.2081E-05  2.6149E-04  175.156
   174    3   0.1051  -0.0047   0.4016  0.00934  -1.6892E-04  1.4151E-05  1.6951E-04  175.211
   175    3   0.1051   0.0047   0.4016  0.00934   1.6892E-04 -1.4151E-05  1.6951E-04   -4.789
   176    3   0.1051   0.0140   0.4016  0.00934   2.6055E-04 -2.2081E-05  2.6149E-04   -4.844
   177    3   0.1051   0.0233   0.4016  0.00934   2.4314E-04 -2.0181E-05  2.4398E-04   -4.745



                                        - - - POWER BUDGET - - -

                                           INPUT POWER   = 1.3612E-02 WATTS
                                           RADIATED POWER= 1.3612E-02 WATTS
                                           STRUCTURE LOSS= 0.0000E+00 WATTS
                                           NETWORK LOSS  = 0.0000E+00 WATTS
                                           EFFICIENCY    = 100.00 PERCENT



                                                - - - RADIATION PATTERNS - - -

  - - ANGLES - -           - POWER GAINS -       - - - POLARIZATION - - -    - - - E(THETA) - - -    - - - E(PHI) - - -
  THETA     PHI        VERT.   HOR.    TOTAL      AXIAL     TILT   SENSE     MAGNITUDE    PHASE      MAGNITUDE    PHASE 
 DEGREES  DEGREES       DB      DB      DB        RATIO     DEG.              VOLTS/M    DEGREES      VOLTS/M    DEGREES
    0.00     0.00       1.81 -999.99    1.81    0.00000     0.00  LINEAR    1.11251E+00     4.17    2.28017E-11   -44.61
    5.00     0.00       1.85 -999.99    1.85    0.00000     0.00  LINEAR    1.11740E+00     3.95    4.00138E-11    89.95
   10.00     0.00       1.95 -199.15    1.95    0.00000     0.00  LINEAR    1.13118E+00     3.33    9.96506E-11    99.00
   15.00     0.00       2.10 -194.79    2.10    0.00000     0.00  LINEAR    1.15073E+00     2.34    1.64564E-10   100.76
   20.00     0.00       2.25 -191.66    2.25    0.00000     0.00  LINEAR    1.17112E+00     1.05    2.35898E-10   101.11
   25.00     0.00       2.36 -189.17    2.36    0.00000     0.00  LINEAR    1.18593E+00    -0.48    3.14212E-10   100.98
   30.00     0.00       2.38 -187.10    2.38    0.00000     0.00  LINEAR    1.18800E+00    -2.22    3.98697E-10   100.67
   35.00     0.00       2.25 -185.37    2.25    0.00000     0.00  LINEAR    1.17023E+00    -4.18    4.86846E-10   100.33
   40.00     0.00       1.92 -183.94    1.92    0.00000     0.00  LINEAR    1.12678E+00    -6.42    5.74289E-10   100.02
   45.00     0.00       1.34 -182.79    1.34    0.00000     0.00  LINEAR    1.05421E+00    -9.05    6.54850E-10    99.78
   50.00     0.00       0.46 -181.96    0.46    0.00000     0.00  LINEAR    9.52586E-01   -12.28    7.20870E-10    99.63
   55.00     0.00      -0.78 -181.46   -0.78    0.00000     0.00  LINEAR    8.26280E-01   -16.40    7.63843E-10    99.58
   60.00     0.00      -2.41 -181.33   -2.41    0.00000     0.00  LINEAR    6.84244E-01   -21.92    7.75342E-10    99.62
   65.00     0.00      -4.48 -181.64   -4.48    0.00000     0.00  LINEAR    5.39411E-01   -29.57    7.48166E-10    99.75
   70.00     0.00      -6.93 -182.50   -6.93    0.00000     0.00  LINEAR    4.06650E-01   -40.27    6.77549E-10    99.97
   75.00     0.00      -9.64 -184.12   -9.64    0.00000     0.00  LINEAR    2.97757E-01   -54.42    5.62245E-10   100.27
   80.00     0.00     -12.60 -186.96  -12.60    0.00000     0.00  LINEAR    2.11873E-01   -70.42    4.05256E-10   100.65
   85.00     0.00     -17.05 -192.51  -17.05    0.00000     0.00  LINEAR    1.26886E-01   -84.57    2.14029E-10   101.10
   90.00     0.00    -999.99 -999.99 -999.99    0.00000     0.00            9.86662E-12    85.38    3.18743E-18    47.12
    0.00    10.00       1.68  -13.40    1.81    0.00000   -10.00  LINEAR    1.09560E+00     4.17    1.93185E-01  -175.83
    5.00    10.00       1.71  -13.31    1.85    0.00024   -10.05  LEFT      1.10044E+00     3.95    1.95105E-01  -176.13
   10.00    10.00       1.82  -13.06    1.96    0.00091   -10.22  LEFT      1.11406E+00     3.33    2.00820E-01  -176.97
   15.00    10.00       1.97  -12.67    2.12    0.00186   -10.50  LEFT      1.13340E+00     2.34    2.10102E-01  -178.26
   20.00    10.00       2.12  -12.17    2.28    0.00284   -10.92  LEFT      1.15359E+00     1.05    2.22513E-01  -179.82
   25.00    10.00       2.23  -11.61    2.41    0.00355   -11.48  LEFT      1.16832E+00    -0.48    2.37360E-01   178.48
   30.00    10.00       2.25  -11.03    2.45    0.00359   -12.22  LEFT      1.17052E+00    -2.22    2.53641E-01   176.79
   35.00    10.00       2.12  -10.49    2.35    0.00243   -13.18  LEFT      1.15319E+00    -4.18    2.70032E-01   175.19
   40.00    10.00       1.79  -10.02    2.07    0.00074   -14.39  RIGHT     1.11056E+00    -6.42    2.84894E-01   173.76
   45.00    10.00       1.22   -9.68    1.56    0.00720   -15.91  RIGHT     1.03922E+00    -9.05    2.96338E-01   172.51
   50.00    10.00       0.34   -9.51    0.77    0.01907   -17.81  RIGHT     9.39197E-01   -12.28    3.02321E-01   171.47
   55.00    10.00      -0.90   -9.55   -0.34    0.03989   -20.16  RIGHT     8.14803E-01   -16.40    3.00801E-01   170.64
   60.00    10.00      -2.53   -9.87   -1.80    0.07543   -22.94  RIGHT     6.74848E-01   -21.92    2.89930E-01   170.02
   65.00    10.00      -4.60  -10.55   -3.61    0.13436   -25.97  RIGHT     5.32080E-01   -29.57    2.68274E-01   169.59
   70.00    10.00      -7.05  -11.70   -5.77    0.22673   -28.59  RIGHT     4.01174E-01   -40.27    2.35027E-01   169.36
   75.00    10.00      -9.76  -13.53   -8.24    0.35519   -29.08  RIGHT     2.93777E-01   -54.42    1.90191E-01   169.31
   80.00    10.00     -12.71  -16.53  -11.20    0.48723   -23.94  RIGHT     2.09057E-01   -70.42    1.34694E-01   169.44
   85.00    10.00     -17.17  -22.17  -15.97    0.52439   -11.99  RIGHT     1.25205E-01   -84.57    7.03986E-02   169.74
   90.00    10.00    -999.99 -999.99 -999.99    0.00000     0.00            9.73606E-12    85.37    4.23296E-12    -9.79
    0.00    20.00       1.27   -7.51    1.81    0.00000   -20.00  LINEAR    1.04541E+00     4.17    3.80499E-01  -175.83
    5.00    20.00       1.31   -7.42    1.85    0.00045   -20.10  LEFT      1.05008E+00     3.95    3.84299E-01  -176.13
   10.00    20.00       1.41   -7.17    1.98    0.00171   -20.41  LEFT      1.06321E+00     3.33    3.95607E-01  -176.97
   15.00    20.00       1.57   -6.78    2.16    0.00346   -20.94  LEFT      1.08189E+00     2.34    4.13976E-01  -178.26
   20.00    20.00       1.72   -6.28    2.36    0.00524   -21.71  LEFT      1.10147E+00     1.05    4.38554E-01  -179.82
   25.00    20.00       1.83   -5.71    2.54    0.00649   -22.75  LEFT      1.11592E+00    -0.48    4.67977E-01   178.48
   30.00    20.00       1.85   -5.13    2.65    0.00647   -24.10  LEFT      1.11847E+00    -2.22    5.00279E-01   176.79
   35.00    20.00       1.73   -4.59    2.64    0.00429   -25.80  LEFT      1.10240E+00    -4.18    5.32844E-01   175.19
   40.00    20.00       1.41   -4.12    2.48    0.00127   -27.90  RIGHT     1.06216E+00    -6.42    5.62441E-01   173.75
   45.00    20.00       0.83   -3.77    2.13    0.01194   -30.48  RIGHT     9.94413E-01    -9.06    5.85323E-01   172.51
   50.00    20.00      -0.04   -3.59    1.55    0.03015   -33.58  RIGHT     8.99152E-01   -12.28    5.97436E-01   171.47
   55.00    20.00      -1.27   -3.63    0.72    0.05930   -37.25  RIGHT     7.80439E-01   -16.40    5.94719E-01   170.64
   60.00    20.00      -2.90   -3.95   -0.38    0.10377   -41.49  RIGHT     6.46681E-01   -21.92    5.73489E-01   170.02
   65.00    20.00      -4.97   -4.62   -1.78    0.16868   -46.21  RIGHT     5.10083E-01   -29.57    5.30872E-01   169.59
   70.00    20.00      -7.41   -5.76   -3.50    0.25911   -51.20  RIGHT     3.84726E-01   -40.27    4.65247E-01   169.36
   75.00    20.00     -10.12   -7.60   -5.67    0.37938   -56.07  RIGHT     2.81814E-01   -54.43    3.76603E-01   169.31
   80.00    20.00     -13.07  -10.60   -8.65    0.53378   -59.96  RIGHT     2.00588E-01   -70.42    2.66770E-01   169.44
   85.00    20.00     -17.52  -16.23  -13.82    0.72929   -59.47  RIGHT     1.20148E-01   -84.57    1.39447E-01   169.74
   90.00    20.00    -999.99 -999.99 -999.99    0.00000     0.00            9.34329E-12    85.37    8.38512E-12    -9.79
    0.00    30.00       0.56   -4.21    1.81    0.00000   -30.00  LINEAR    9.63458E-01     4.17    5.56253E-01  -175.83
    5.00    30.00       0.60   -4.13    1.86    0.00061   -30.14  LEFT      9.67822E-01     3.95    5.61846E-01  -176.13
   10.00    30.00       0.71   -3.87    2.01    0.00229   -30.55  LEFT      9.80116E-01     3.33    5.78493E-01  -176.97
   15.00    30.00       0.86   -3.47    2.22    0.00459   -31.26  LEFT      9.97656E-01     2.34    6.05545E-01  -178.26
   20.00    30.00       1.02   -2.97    2.48    0.00689   -32.27  LEFT      1.01615E+00     1.05    6.41772E-01  -179.82
   25.00    30.00       1.14   -2.40    2.73    0.00839   -33.63  LEFT      1.03003E+00    -0.48    6.85192E-01   178.48
   30.00    30.00       1.16   -1.82    2.94    0.00819   -35.35  LEFT      1.03301E+00    -2.22    7.32936E-01   176.79
   35.00    30.00       1.04   -1.26    3.05    0.00529   -37.48  LEFT      1.01887E+00    -4.18    7.81179E-01   175.19
   40.00    30.00       0.73   -0.79    3.05    0.00151   -40.03  RIGHT     9.82388E-01    -6.42    8.25171E-01   173.75
   45.00    30.00       0.16   -0.43    2.88    0.01362   -43.04  RIGHT     9.20425E-01    -9.06    8.59390E-01   172.51
   50.00    30.00      -0.71   -0.25    2.54    0.03267   -46.51  RIGHT     8.32882E-01   -12.28    8.77840E-01   171.47
   55.00    30.00      -1.93   -0.28    1.98    0.06042   -50.44  RIGHT     7.23452E-01   -16.40    8.74494E-01   170.64
   60.00    30.00      -3.56   -0.59    1.18    0.09861   -54.79  RIGHT     5.99877E-01   -21.92    8.43862E-01   170.01
   65.00    30.00      -5.61   -1.26    0.10    0.14869   -59.48  RIGHT     4.73464E-01   -29.57    7.81647E-01   169.59
   70.00    30.00      -8.06   -2.40   -1.35    0.21175   -64.39  RIGHT     3.57302E-01   -40.27    6.85396E-01   169.36
   75.00    30.00     -10.76   -4.23   -3.36    0.28907   -69.38  RIGHT     2.61842E-01   -54.43    5.55053E-01   169.31
   80.00    30.00     -13.71   -7.22   -6.34    0.38413   -74.23  RIGHT     1.86433E-01   -70.42    3.93305E-01   169.44
   85.00    30.00     -18.16  -12.86  -11.73    0.50801   -78.69  RIGHT     1.11693E-01   -84.57    2.05631E-01   169.74
   90.00    30.00    -999.99 -999.99 -999.99    0.00000     0.00            8.68632E-12    85.37    1.23657E-11    -9.80
    0.00    40.00      -0.51   -2.03    1.81    0.00000   -40.00  LINEAR    8.52229E-01     4.17    7.15105E-01  -175.83
    5.00    40.00      -0.47   -1.94    1.87    0.00069   -40.15  LEFT      8.56162E-01     3.95    7.22357E-01  -176.13
   10.00    40.00      -0.35   -1.69    2.04    0.00258   -40.62  LEFT      8.67247E-01     3.33    7.43939E-01  -176.97
   15.00    40.00      -0.20   -1.29    2.30    0.00514   -41.42  LEFT      8.83110E-01     2.34    7.79031E-01  -178.26
   20.00    40.00      -0.03   -0.78    2.62    0.00760   -42.55  LEFT      8.99952E-01     1.05    8.26072E-01  -179.83
   25.00    40.00       0.09   -0.20    2.96    0.00909   -44.03  LEFT      9.12837E-01    -0.48    8.82534E-01   178.48
   30.00    40.00       0.12    0.39    3.27    0.00868   -45.88  LEFT      9.16170E-01    -2.22    9.44740E-01   176.79
   35.00    40.00       0.01    0.95    3.51    0.00544   -48.09  LEFT      9.04382E-01    -4.18    1.00777E+00   175.19
   40.00    40.00      -0.30    1.43    3.66    0.00151   -50.68  RIGHT     8.72780E-01    -6.42    1.06547E+00   173.75
   45.00    40.00      -0.86    1.79    3.68    0.01304   -53.62  RIGHT     8.18484E-01    -9.06    1.11067E+00   172.51
   50.00    40.00      -1.72    1.99    3.53    0.02994   -56.89  RIGHT     7.41323E-01   -12.28    1.13557E+00   171.47
   55.00    40.00      -2.93    1.96    3.18    0.05284   -60.45  RIGHT     6.44502E-01   -16.40    1.13226E+00   170.64
   60.00    40.00      -4.55    1.66    2.59    0.08218   -64.24  RIGHT     5.34866E-01   -21.92    1.09352E+00   170.01
   65.00    40.00      -6.60    1.00    1.70    0.11820   -68.19  RIGHT     4.22477E-01   -29.58    1.01368E+00   169.59
   70.00    40.00      -9.04   -0.14    0.39    0.16121   -72.21  RIGHT     3.19037E-01   -40.28    8.89449E-01   169.36
   75.00    40.00     -11.74   -1.96   -1.53    0.21216   -76.17  RIGHT     2.33927E-01   -54.43    7.20690E-01   169.31
   80.00    40.00     -14.68   -4.95   -4.51    0.27410   -79.94  RIGHT     1.66623E-01   -70.43    5.10878E-01   169.44
   85.00    40.00     -19.13  -10.58  -10.01    0.35564   -83.39  RIGHT     9.98490E-02   -84.57    2.67167E-01   169.74
   90.00    40.00    -999.99 -999.99 -999.99    0.00000     0.00            7.76588E-12    85.37    1.60675E-11    -9.80
    0.00    50.00      -2.03   -0.51    1.81    0.00000   -50.00  LINEAR    7.15105E-01     4.17    8.52229E-01  -175.83
    5.00    50.00      -1.99   -0.42    1.88    0.00069   -50.15  LEFT      7.18472E-01     3.95    8.60951E-01  -176.13
   10.00    50.00      -1.88   -0.16    2.08    0.00256   -50.62  LEFT      7.27961E-01     3.33    8.86902E-01  -176.97
   15.00    50.00      -1.71    0.24    2.38    0.00505   -51.41  LEFT      7.41584E-01     2.34    9.29124E-01  -178.26
   20.00    50.00      -1.55    0.76    2.77    0.00737   -52.51  LEFT      7.56151E-01     1.05    9.85780E-01  -179.83
   25.00    50.00      -1.42    1.34    3.19    0.00865   -53.94  LEFT      7.67507E-01    -0.48    1.05389E+00   178.48
   30.00    50.00      -1.38    1.94    3.60    0.00808   -55.68  LEFT      7.70927E-01    -2.22    1.12907E+00   176.79
   35.00    50.00      -1.48    2.51    3.96    0.00495   -57.71  LEFT      7.61682E-01    -4.18    1.20546E+00   175.19
   40.00    50.00      -1.78    3.00    4.24    0.00133   -60.03  RIGHT     7.35762E-01    -6.42    1.27569E+00   173.75
   45.00    50.00      -2.33    3.37    4.40    0.01116   -62.58  RIGHT     6.90665E-01    -9.06    1.33112E+00   172.51
   50.00    50.00      -3.18    3.57    4.40    0.02481   -65.34  RIGHT     6.26167E-01   -12.28    1.36229E+00   171.47
   55.00    50.00      -4.39    3.55    4.20    0.04240   -68.27  RIGHT     5.44905E-01   -16.41    1.35961E+00   170.64
   60.00    50.00      -6.00    3.26    3.74    0.06393   -71.30  RIGHT     4.52617E-01   -21.92    1.31428E+00   170.01
   65.00    50.00      -8.05    2.60    2.96    0.08941   -74.38  RIGHT     3.57800E-01   -29.58    1.21930E+00   169.59
   70.00    50.00     -10.48    1.47    1.74    0.11904   -77.44  RIGHT     2.70385E-01   -40.28    1.07062E+00   169.35
   75.00    50.00     -13.17   -0.35   -0.13    0.15371   -80.39  RIGHT     1.98367E-01   -54.43    8.67984E-01   169.31
   80.00    50.00     -16.11   -3.33   -3.11    0.19589   -83.16  RIGHT     1.41354E-01   -70.43    6.15550E-01   169.44
   85.00    50.00     -20.56   -8.96   -8.67    0.25197   -85.65  RIGHT     8.47282E-02   -84.58    3.21989E-01   169.73
   90.00    50.00    -999.99 -999.99 -999.99    0.00000     0.00            6.59041E-12    85.37    1.93662E-11    -9.80
    0.00    60.00      -4.21    0.56    1.81    0.00000   -60.00  LINEAR    5.56253E-01     4.17    9.63458E-01  -175.83
    5.00    60.00      -4.17    0.65    1.89    0.00061   -60.14  LEFT      5.58921E-01     3.95    9.73405E-01  -176.13
   10.00    60.00      -4.05    0.91    2.11    0.00224   -60.54  LEFT      5.66441E-01     3.33    1.00299E+00  -176.97
   15.00    60.00      -3.89    1.32    2.46    0.00437   -61.23  LEFT      5.77268E-01     2.34    1.05115E+00  -178.26
   20.00    60.00      -3.72    1.83    2.90    0.00630   -62.18  LEFT      5.88918E-01     1.05    1.11584E+00  -179.83
   25.00    60.00      -3.58    2.42    3.39    0.00728   -63.39  LEFT      5.98151E-01    -0.48    1.19370E+00   178.48
   30.00    60.00      -3.54    3.03    3.89    0.00668   -64.84  LEFT      6.01268E-01    -2.22    1.27983E+00   176.78
   35.00    60.00      -3.63    3.60    4.35    0.00400   -66.50  LEFT      5.94553E-01    -4.18    1.36756E+00   175.19
   40.00    60.00      -3.93    4.10    4.74    0.00105   -68.35  RIGHT     5.74830E-01    -6.43    1.44851E+00   173.75
   45.00    60.00      -4.47    4.48    5.00    0.00865   -70.36  RIGHT     5.40091E-01    -9.06    1.51283E+00   172.50
   50.00    60.00      -5.31    4.69    5.10    0.01880   -72.48  RIGHT     4.90103E-01   -12.28    1.54968E+00   171.46
   55.00    60.00      -6.51    4.68    5.00    0.03144   -74.68  RIGHT     4.26879E-01   -16.41    1.54801E+00   170.63
   60.00    60.00      -8.12    4.39    4.63    0.04650   -76.92  RIGHT     3.54877E-01   -21.93    1.49764E+00   170.01
   65.00    60.00     -10.15    3.75    3.92    0.06395   -79.16  RIGHT     2.80748E-01   -29.58    1.39047E+00   169.58
   70.00    60.00     -12.58    2.62    2.75    0.08398   -81.35  RIGHT     2.12296E-01   -40.28    1.22172E+00   169.35
   75.00    60.00     -15.26    0.80    0.91    0.10731   -83.44  RIGHT     1.55833E-01   -54.43    9.91007E-01   169.30
   80.00    60.00     -18.20   -2.18   -2.07    0.13578   -85.38  RIGHT     1.11088E-01   -70.43    7.03069E-01   169.43
   85.00    60.00     -22.65   -7.80   -7.66    0.17388   -87.11  RIGHT     6.66027E-02   -84.58    3.67858E-01   169.73
   90.00    60.00    -999.99 -999.99 -999.99    0.00000     0.00            5.18097E-12    85.36    2.21268E-11    -9.80
    0.00    70.00      -7.51    1.27    1.81    0.00000   -70.00  LINEAR    3.80499E-01     4.17    1.04541E+00  -175.83
    5.00    70.00      -7.47    1.36    1.89    0.00045   -70.10  LEFT      3.82353E-01     3.95    1.05629E+00  -176.13
   10.00    70.00      -7.35    1.62    2.14    0.00165   -70.40  LEFT      3.87576E-01     3.33    1.08861E+00  -176.97
   15.00    70.00      -7.18    2.03    2.52    0.00320   -70.90  LEFT      3.95111E-01     2.34    1.14125E+00  -178.26
   20.00    70.00      -7.01    2.55    3.01    0.00457   -71.60  LEFT      4.03260E-01     1.05    1.21200E+00  -179.83
   25.00    70.00      -6.87    3.14    3.56    0.00522   -72.47  LEFT      4.09800E-01    -0.48    1.29727E+00   178.48
   30.00    70.00      -6.82    3.75    4.12    0.00473   -73.50  LEFT      4.12188E-01    -2.22    1.39172E+00   176.78
   35.00    70.00      -6.91    4.33    4.65    0.00279   -74.67  LEFT      4.07861E-01    -4.18    1.48813E+00   175.19
   40.00    70.00      -7.19    4.84    5.10    0.00072   -75.95  RIGHT     3.94617E-01    -6.43    1.57736E+00   173.75
   45.00    70.00      -7.73    5.22    5.44    0.00585   -77.32  RIGHT     3.71045E-01    -9.06    1.64864E+00   172.50
   50.00    70.00      -8.57    5.44    5.61    0.01253   -78.75  RIGHT     3.36955E-01   -12.28    1.69005E+00   171.46
   55.00    70.00      -9.76    5.44    5.57    0.02069   -80.21  RIGHT     2.93699E-01   -16.41    1.68945E+00   170.63
   60.00    70.00     -11.36    5.16    5.25    0.03025   -81.68  RIGHT     2.44326E-01   -21.93    1.63559E+00   170.01
   65.00    70.00     -13.39    4.52    4.59    0.04119   -83.13  RIGHT     1.93408E-01   -29.58    1.51948E+00   169.58
   70.00    70.00     -15.81    3.40    3.45    0.05367   -84.54  RIGHT     1.46329E-01   -40.28    1.33578E+00   169.35
   75.00    70.00     -18.49    1.58    1.63    0.06818   -85.88  RIGHT     1.07457E-01   -54.44    1.08399E+00   169.30
   80.00    70.00     -21.43   -1.40   -1.35    0.08593   -87.12  RIGHT     7.66270E-02   -70.43    7.69281E-01   169.43
   85.00    70.00     -25.87   -7.02   -6.96    0.10978   -88.21  RIGHT     4.59504E-02   -84.58    4.02579E-01   169.73
   90.00    70.00    -999.99 -999.99 -999.99    0.00000     0.00            3.57468E-12    85.36    2.42169E-11    -9.81
    0.00    80.00     -13.40    1.68    1.81    0.00000   -80.00  LINEAR    1.93185E-01     4.17    1.09560E+00  -175.83
    5.00    80.00     -13.36    1.77    1.90    0.00024   -80.05  LEFT      1.94136E-01     3.95    1.10706E+00  -176.13
   10.00    80.00     -13.24    2.03    2.16    0.00087   -80.21  LEFT      1.96815E-01     3.33    1.14109E+00  -176.97
   15.00    80.00     -13.07    2.44    2.56    0.00169   -80.48  LEFT      2.00684E-01     2.34    1.19652E+00  -178.26
   20.00    80.00     -12.89    2.97    3.08    0.00240   -80.84  LEFT      2.04882E-01     1.05    1.27107E+00  -179.83
   25.00    80.00     -12.74    3.56    3.66    0.00272   -81.30  LEFT      2.08278E-01    -0.48    1.36097E+00   178.48
   30.00    80.00     -12.69    4.17    4.26    0.00244   -81.84  LEFT      2.09576E-01    -2.22    1.46065E+00   176.78
   35.00    80.00     -12.78    4.76    4.83    0.00143   -82.44  LEFT      2.07469E-01    -4.18    1.56253E+00   175.19
   40.00    80.00     -13.06    5.27    5.33    0.00037   -83.09  RIGHT     2.00827E-01    -6.43    1.65701E+00   173.75
   45.00    80.00     -13.59    5.66    5.71    0.00294   -83.78  RIGHT     1.88923E-01    -9.06    1.73273E+00   172.50
   50.00    80.00     -14.43    5.88    5.92    0.00625   -84.49  RIGHT     1.71649E-01   -12.28    1.77712E+00   171.46
   55.00    80.00     -15.61    5.88    5.91    0.01025   -85.22  RIGHT     1.49685E-01   -16.41    1.77733E+00   170.63
   60.00    80.00     -17.21    5.60    5.62    0.01489   -85.95  RIGHT     1.24577E-01   -21.93    1.72143E+00   170.01
   65.00    80.00     -19.24    4.96    4.98    0.02018   -86.67  RIGHT     9.86544E-02   -29.58    1.59987E+00   169.58
   70.00    80.00     -21.66    3.85    3.86    0.02618   -87.36  RIGHT     7.46659E-02   -40.28    1.40693E+00   169.35
   75.00    80.00     -24.33    2.04    2.05    0.03316   -88.01  RIGHT     5.48464E-02   -54.44    1.14205E+00   169.30
   80.00    80.00     -27.27   -0.94   -0.93    0.04171   -88.61  RIGHT     3.91187E-02   -70.43    8.10654E-01   169.43
   85.00    80.00     -31.71   -6.56   -6.55    0.05322   -89.14  RIGHT     2.34610E-02   -84.58    4.24284E-01   169.73
   90.00    80.00    -999.99 -999.99 -999.99    0.00000     0.00            1.82521E-12    85.36    2.55236E-11    -9.81
    0.00    90.00    -999.99    1.81    1.81    0.00000   -90.00  LINEAR    1.95332E-11   -57.24    1.11251E+00  -175.83
    5.00    90.00    -157.42    1.90    1.90    0.00000    90.00  LINEAR    1.21536E-08  -172.85    1.12417E+00  -176.13
   10.00    90.00    -151.60    2.16    2.16    0.00000    90.00  LINEAR    2.37730E-08  -173.65    1.15879E+00  -176.97
   15.00    90.00    -148.40    2.57    2.57    0.00000    90.00  LINEAR    3.43289E-08  -175.02    1.21518E+00  -178.26
   20.00    90.00    -146.38    3.10    3.10    0.00000    90.00  LINEAR    4.33394E-08  -177.18    1.29103E+00  -179.83
   25.00    90.00    -145.07    3.70    3.70    0.00000    90.00  LINEAR    5.03805E-08   179.60    1.38252E+00   178.48
   30.00    90.00    -144.29    4.31    4.31    0.00000    90.00  LINEAR    5.51291E-08   174.89    1.48399E+00   176.78
   35.00    90.00    -143.93    4.90    4.90    0.00000    90.00  LINEAR    5.74755E-08   168.06    1.58776E+00   175.19
   40.00    90.00    -143.88    5.41    5.41    0.00000    90.00  LINEAR    5.77822E-08   158.16    1.68405E+00   173.75
   45.00    90.00    -143.95    5.80    5.80    0.00000    90.00  LINEAR    5.73437E-08   144.12    1.76131E+00   172.50
   50.00    90.00    -143.73    6.02    6.02    0.00000    90.00  LINEAR    5.87832E-08   125.68    1.80675E+00   171.46
   55.00    90.00    -142.83    6.02    6.02    0.00000    90.00  LINEAR    6.52096E-08   105.32    1.80727E+00   170.63
   60.00    90.00    -141.33    5.75    5.75    0.00000    90.00  LINEAR    7.75482E-08    87.23    1.75071E+00   170.01
   65.00    90.00    -139.73    5.11    5.11    0.00000   -90.00  LINEAR    9.31551E-08    73.43    1.62731E+00   169.58
   70.00    90.00    -138.53    4.00    4.00    0.00000   -90.00  LINEAR    1.07048E-07    63.39    1.43124E+00   169.35
   75.00    90.00    -138.05    2.19    2.19    0.00000   -90.00  LINEAR    1.13077E-07    55.91    1.16190E+00   169.30
   80.00    90.00    -138.77   -0.79   -0.79    0.00000   -90.00  LINEAR    1.04113E-07    49.88    8.24802E-01   169.43
   85.00    90.00    -142.07   -6.41   -6.41    0.00000   -90.00  LINEAR    7.11963E-08    44.22    4.31708E-01   169.73
   90.00    90.00    -999.99 -999.99 -999.99    0.00000     0.00            4.73360E-18  -150.00    2.59706E-11    -9.81
    0.00   100.00     -13.40    1.68    1.81    0.00000    80.00  LINEAR    1.93185E-01  -175.83    1.09560E+00  -175.83
    5.00   100.00     -13.36    1.77    1.90    0.00024    80.05  RIGHT     1.94141E-01  -176.05    1.10708E+00  -176.13
   10.00   100.00     -13.24    2.03    2.16    0.00087    80.21  RIGHT     1.96824E-01  -176.67    1.14114E+00  -176.97
   15.00   100.00     -13.07    2.44    2.56    0.00169    80.48  RIGHT     2.00698E-01  -177.66    1.19661E+00  -178.26
   20.00   100.00     -12.89    2.97    3.08    0.00240    80.84  RIGHT     2.04901E-01  -178.95    1.27119E+00  -179.83
   25.00   100.00     -12.74    3.56    3.66    0.00272    81.30  RIGHT     2.08302E-01   179.52    1.36113E+00   178.48
   30.00   100.00     -12.69    4.17    4.26    0.00244    81.84  RIGHT     2.09605E-01   177.78    1.46085E+00   176.78
   35.00   100.00     -12.78    4.76    4.84    0.00143    82.44  RIGHT     2.07501E-01   175.82    1.56277E+00   175.19
   40.00   100.00     -13.06    5.27    5.33    0.00037    83.09  LEFT      2.00862E-01   173.57    1.65730E+00   173.75
   45.00   100.00     -13.59    5.66    5.71    0.00294    83.78  LEFT      1.88960E-01   170.94    1.73306E+00   172.50
   50.00   100.00     -14.42    5.88    5.92    0.00625    84.49  LEFT      1.71685E-01   167.72    1.77749E+00   171.46
   55.00   100.00     -15.61    5.88    5.91    0.01025    85.22  LEFT      1.49718E-01   163.59    1.77773E+00   170.63
   60.00   100.00     -17.21    5.60    5.62    0.01489    85.95  LEFT      1.24606E-01   158.07    1.72184E+00   170.01
   65.00   100.00     -19.23    4.97    4.98    0.02018    86.67  LEFT      9.86790E-02   150.42    1.60026E+00   169.58
   70.00   100.00     -21.65    3.85    3.86    0.02618    87.36  LEFT      7.46852E-02   139.72    1.40729E+00   169.35
   75.00   100.00     -24.33    2.04    2.05    0.03316    88.01  LEFT      5.48610E-02   125.56    1.14236E+00   169.30
   80.00   100.00     -27.27   -0.94   -0.93    0.04171    88.61  LEFT      3.91293E-02   109.57    8.10872E-01   169.43
   85.00   100.00     -31.71   -6.56   -6.55    0.05322    89.14  LEFT      2.34675E-02    95.42    4.24399E-01   169.73
   90.00   100.00    -999.99 -999.99 -999.99    0.00000     0.00            1.82572E-12   -94.64    2.55305E-11    -9.81
    0.00   110.00      -7.51    1.27    1.81    0.00000    70.00  LINEAR    3.80499E-01  -175.83    1.04541E+00  -175.83
    5.00   110.00      -7.47    1.36    1.89    0.00045    70.10  RIGHT     3.82371E-01  -176.05    1.05634E+00  -176.13
   10.00   110.00      -7.35    1.62    2.14    0.00165    70.40  RIGHT     3.87612E-01  -176.67    1.08871E+00  -176.97
   15.00   110.00      -7.18    2.03    2.52    0.00320    70.90  RIGHT     3.95166E-01  -177.66    1.14141E+00  -178.26
   20.00   110.00      -7.00    2.55    3.01    0.00457    71.60  RIGHT     4.03334E-01  -178.95    1.21223E+00  -179.83
   25.00   110.00      -6.86    3.14    3.56    0.00522    72.47  RIGHT     4.09893E-01   179.52    1.29757E+00   178.48
   30.00   110.00      -6.81    3.76    4.12    0.00473    73.50  RIGHT     4.12300E-01   177.78    1.39210E+00   176.79
   35.00   110.00      -6.90    4.34    4.65    0.00279    74.67  RIGHT     4.07988E-01   175.82    1.48859E+00   175.19
   40.00   110.00      -7.19    4.84    5.11    0.00072    75.95  LEFT      3.94754E-01   173.58    1.57791E+00   173.75
   45.00   110.00      -7.73    5.23    5.44    0.00585    77.32  LEFT      3.71187E-01   170.94    1.64926E+00   172.51
   50.00   110.00      -8.56    5.44    5.61    0.01253    78.75  LEFT      3.37094E-01   167.72    1.69075E+00   171.46
   55.00   110.00      -9.76    5.44    5.57    0.02069    80.21  LEFT      2.93829E-01   163.59    1.69020E+00   170.63
   60.00   110.00     -11.35    5.16    5.26    0.03025    81.68  LEFT      2.44441E-01   158.07    1.63636E+00   170.01
   65.00   110.00     -13.38    4.52    4.59    0.04119    83.13  LEFT      1.93503E-01   150.42    1.52023E+00   169.58
   70.00   110.00     -15.81    3.40    3.45    0.05367    84.54  LEFT      1.46404E-01   139.72    1.33645E+00   169.35
   75.00   110.00     -18.49    1.59    1.63    0.06818    85.88  LEFT      1.07513E-01   125.56    1.08456E+00   169.30
   80.00   110.00     -21.43   -1.39   -1.35    0.08593    87.12  LEFT      7.66679E-02   109.57    7.69691E-01   169.43
   85.00   110.00     -25.87   -7.02   -6.96    0.10978    88.21  LEFT      4.59753E-02    95.42    4.02796E-01   169.73
   90.00   110.00    -999.99 -999.99 -999.99    0.00000     0.00            3.57662E-12   -94.64    2.42299E-11    -9.80
    0.00   120.00      -4.21    0.56    1.81    0.00000    60.00  LINEAR    5.56253E-01  -175.83    9.63458E-01  -175.83
    5.00   120.00      -4.17    0.65    1.89    0.00061    60.14  RIGHT     5.58960E-01  -176.05    9.73472E-01  -176.13
   10.00   120.00      -4.05    0.91    2.11    0.00224    60.54  RIGHT     5.66519E-01  -176.67    1.00313E+00  -176.97
   15.00   120.00      -3.89    1.32    2.46    0.00437    61.23  RIGHT     5.77386E-01  -177.66    1.05136E+00  -178.26
   20.00   120.00      -3.71    1.84    2.90    0.00630    62.18  RIGHT     5.89077E-01  -178.95    1.11614E+00  -179.82
   25.00   120.00      -3.58    2.42    3.40    0.00728    63.39  RIGHT     5.98351E-01   179.52    1.19410E+00   178.48
   30.00   120.00      -3.53    3.03    3.89    0.00668    64.84  RIGHT     6.01506E-01   177.78    1.28033E+00   176.79
   35.00   120.00      -3.63    3.61    4.36    0.00400    66.50  RIGHT     5.94822E-01   175.82    1.36817E+00   175.19
   40.00   120.00      -3.92    4.11    4.74    0.00105    68.35  LEFT      5.75122E-01   173.58    1.44925E+00   173.75
   45.00   120.00      -4.46    4.48    5.00    0.00865    70.36  LEFT      5.40393E-01   170.94    1.51368E+00   172.51
   50.00   120.00      -5.31    4.69    5.11    0.01880    72.48  LEFT      4.90401E-01   167.72    1.55062E+00   171.47
   55.00   120.00      -6.51    4.68    5.00    0.03144    74.68  LEFT      4.27156E-01   163.60    1.54902E+00   170.64
   60.00   120.00      -8.11    4.40    4.63    0.04650    76.92  LEFT      3.55121E-01   158.08    1.49867E+00   170.01
   65.00   120.00     -10.15    3.75    3.93    0.06395    79.16  LEFT      2.80950E-01   150.42    1.39147E+00   169.59
   70.00   120.00     -12.57    2.63    2.76    0.08398    81.35  LEFT      2.12455E-01   139.72    1.22263E+00   169.35
   75.00   120.00     -15.26    0.81    0.92    0.10731    83.44  LEFT      1.55953E-01   125.57    9.91767E-01   169.31
   80.00   120.00     -18.20   -2.17   -2.06    0.13578    85.38  LEFT      1.11175E-01   109.57    7.03619E-01   169.44
   85.00   120.00     -22.64   -7.80   -7.66    0.17388    87.11  LEFT      6.66555E-02    95.42    3.68149E-01   169.73
   90.00   120.00    -999.99 -999.99 -999.99    0.00000     0.00            5.18510E-12   -94.63    2.21443E-11    -9.80
    0.00   130.00      -2.03   -0.51    1.81    0.00000    50.00  LINEAR    7.15105E-01  -175.83    8.52229E-01  -175.83
    5.00   130.00      -1.99   -0.42    1.88    0.00069    50.15  RIGHT     7.18535E-01  -176.05    8.61027E-01  -176.13
   10.00   130.00      -1.87   -0.16    2.08    0.00256    50.62  RIGHT     7.28089E-01  -176.67    8.87058E-01  -176.97
   15.00   130.00      -1.71    0.25    2.39    0.00505    51.41  RIGHT     7.41779E-01  -177.66    9.29367E-01  -178.26
   20.00   130.00      -1.54    0.76    2.77    0.00737    52.51  RIGHT     7.56414E-01  -178.95    9.86122E-01  -179.82
   25.00   130.00      -1.41    1.34    3.19    0.00865    53.94  RIGHT     7.67837E-01   179.52    1.05434E+00   178.48
   30.00   130.00      -1.37    1.94    3.60    0.00808    55.68  RIGHT     7.71318E-01   177.78    1.12965E+00   176.79
   35.00   130.00      -1.48    2.51    3.97    0.00495    57.71  RIGHT     7.62127E-01   175.82    1.20617E+00   175.19
   40.00   130.00      -1.78    3.00    4.25    0.00133    60.03  LEFT      7.36244E-01   173.58    1.27653E+00   173.75
   45.00   130.00      -2.33    3.37    4.41    0.01116    62.58  LEFT      6.91164E-01   170.94    1.33208E+00   172.51
   50.00   130.00      -3.18    3.57    4.41    0.02481    65.34  LEFT      6.26657E-01   167.72    1.36336E+00   171.47
   55.00   130.00      -4.38    3.56    4.20    0.04240    68.27  LEFT      5.45362E-01   163.60    1.36075E+00   170.64
   60.00   130.00      -6.00    3.26    3.75    0.06393    71.30  LEFT      4.53018E-01   158.08    1.31544E+00   170.01
   65.00   130.00      -8.04    2.61    2.97    0.08941    74.38  LEFT      3.58133E-01   150.42    1.22044E+00   169.59
   70.00   130.00     -10.47    1.48    1.75    0.11904    77.44  LEFT      2.70646E-01   139.73    1.07165E+00   169.36
   75.00   130.00     -13.16   -0.34   -0.12    0.15371    80.39  LEFT      1.98564E-01   125.57    8.68845E-01   169.31
   80.00   130.00     -16.10   -3.32   -3.10    0.19589    83.16  LEFT      1.41497E-01   109.57    6.16172E-01   169.44
   85.00   130.00     -20.55   -8.95   -8.66    0.25197    85.65  LEFT      8.48149E-02    95.43    3.22318E-01   169.74
   90.00   130.00    -999.99 -999.99 -999.99    0.00000     0.00            6.59718E-12   -94.63    1.93861E-11    -9.80
    0.00   140.00      -0.51   -2.03    1.81    0.00000    40.00  LINEAR    8.52229E-01  -175.83    7.15105E-01  -175.83
    5.00   140.00      -0.47   -1.94    1.87    0.00069    40.15  RIGHT     8.56252E-01  -176.05    7.22433E-01  -176.13
   10.00   140.00      -0.35   -1.69    2.04    0.00258    40.62  RIGHT     8.67429E-01  -176.67    7.44095E-01  -176.97
   15.00   140.00      -0.19   -1.28    2.30    0.00514    41.42  RIGHT     8.83386E-01  -177.66    7.79275E-01  -178.26
   20.00   140.00      -0.03   -0.77    2.62    0.00760    42.55  RIGHT     9.00324E-01  -178.95    8.26414E-01  -179.82
   25.00   140.00       0.09   -0.20    2.96    0.00909    44.03  RIGHT     9.13304E-01   179.52    8.82985E-01   178.48
   30.00   140.00       0.13    0.39    3.27    0.00868    45.88  RIGHT     9.16726E-01   177.78    9.45313E-01   176.79
   35.00   140.00       0.02    0.96    3.52    0.00544    48.09  RIGHT     9.05012E-01   175.82    1.00847E+00   175.19
   40.00   140.00      -0.29    1.44    3.67    0.00151    50.68  LEFT      8.73463E-01   173.58    1.06630E+00   173.76
   45.00   140.00      -0.85    1.80    3.69    0.01304    53.62  LEFT      8.19190E-01   170.95    1.11163E+00   172.51
[...]
   50.00   280.00     -14.43    5.88    5.92    0.00625    84.49  LEFT      1.71649E-01   -12.28    1.77712E+00    -8.54
   55.00   280.00     -15.61    5.88    5.91    0.01025    85.22  LEFT      1.49685E-01   -16.41    1.77733E+00    -9.37
   60.00   280.00     -17.21    5.60    5.62    0.01489    85.95  LEFT      1.24577E-01   -21.93    1.72143E+00    -9.99
   65.00   280.00     -19.24    4.96    4.98    0.02018    86.67  LEFT      9.86544E-02   -29.58    1.59987E+00   -10.42
   70.00   280.00     -21.66    3.85    3.86    0.02618    87.36  LEFT      7.46659E-02   -40.28    1.40693E+00   -10.65
   75.00   280.00     -24.33    2.04    2.05    0.03316    88.01  LEFT      5.48464E-02   -54.44    1.14205E+00   -10.70
   80.00   280.00     -27.27   -0.94   -0.93    0.04171    88.61  LEFT      3.91187E-02   -70.43    8.10654E-01   -10.57
   85.00   280.00     -31.71   -6.56   -6.55    0.05322    89.14  LEFT      2.34610E-02   -84.58    4.24284E-01   -10.27
   90.00   280.00    -999.99 -999.99 -999.99    0.00000     0.00            1.82521E-12    85.36    2.55236E-11   170.19
    0.00   290.00      -7.51    1.27    1.81    0.00000    70.00  LINEAR    3.80499E-01     4.17    1.04541E+00     4.17
    5.00   290.00      -7.47    1.36    1.89    0.00045    70.10  RIGHT     3.82353E-01     3.95    1.05629E+00     3.87
   10.00   290.00      -7.35    1.62    2.14    0.00165    70.40  RIGHT     3.87576E-01     3.33    1.08861E+00     3.03
   15.00   290.00      -7.18    2.03    2.52    0.00320    70.90  RIGHT     3.95111E-01     2.34    1.14125E+00     1.74
   20.00   290.00      -7.01    2.55    3.01    0.00457    71.60  RIGHT     4.03260E-01     1.05    1.21200E+00     0.17
   25.00   290.00      -6.87    3.14    3.56    0.00522    72.47  RIGHT     4.09800E-01    -0.48    1.29727E+00    -1.52
   30.00   290.00      -6.82    3.75    4.12    0.00473    73.50  RIGHT     4.12188E-01    -2.22    1.39172E+00    -3.22
   35.00   290.00      -6.91    4.33    4.65    0.00279    74.67  RIGHT     4.07861E-01    -4.18    1.48813E+00    -4.81
   40.00   290.00      -7.19    4.84    5.10    0.00072    75.95  LEFT      3.94617E-01    -6.43    1.57736E+00    -6.25
   45.00   290.00      -7.73    5.22    5.44    0.00585    77.32  LEFT      3.71045E-01    -9.06    1.64864E+00    -7.50
   50.00   290.00      -8.57    5.44    5.61    0.01253    78.75  LEFT      3.36955E-01   -12.28    1.69005E+00    -8.54
   55.00   290.00      -9.76    5.44    5.57    0.02069    80.21  LEFT      2.93699E-01   -16.41    1.68945E+00    -9.37
   60.00   290.00     -11.36    5.16    5.25    0.03025    81.68  LEFT      2.44326E-01   -21.93    1.63559E+00    -9.99
   65.00   290.00     -13.39    4.52    4.59    0.04119    83.13  LEFT      1.93408E-01   -29.58    1.51948E+00   -10.42
   70.00   290.00     -15.81    3.40    3.45    0.05367    84.54  LEFT      1.46329E-01   -40.28    1.33578E+00   -10.65
   75.00   290.00     -18.49    1.58    1.63    0.06818    85.88  LEFT      1.07457E-01   -54.44    1.08399E+00   -10.70
   80.00   290.00     -21.43   -1.40   -1.35    0.08593    87.12  LEFT      7.66270E-02   -70.43    7.69281E-01   -10.57
   85.00   290.00     -25.87   -7.02   -6.96    0.10978    88.21  LEFT      4.59504E-02   -84.58    4.02579E-01   -10.27
   90.00   290.00    -999.99 -999.99 -999.99    0.00000     0.00            3.57468E-12    85.36    2.42169E-11   170.19
    0.00   300.00      -4.21    0.56    1.81    0.00000    60.00  LINEAR    5.56253E-01     4.17    9.63458E-01     4.17
    5.00   300.00      -4.17    0.65    1.89    0.00061    60.14  RIGHT     5.58921E-01     3.95    9.73405E-01     3.87
   10.00   300.00      -4.05    0.91    2.11    0.00224    60.54  RIGHT     5.66441E-01     3.33    1.00299E+00     3.03
   15.00   300.00      -3.89    1.32    2.46    0.00437    61.23  RIGHT     5.77268E-01     2.34    1.05115E+00     1.74
   20.00   300.00      -3.72    1.83    2.90    0.00630    62.18  RIGHT     5.88918E-01     1.05    1.11584E+00     0.17
   25.00   300.00      -3.58    2.42    3.39    0.00728    63.39  RIGHT     5.98151E-01    -0.48    1.19370E+00    -1.52
   30.00   300.00      -3.54    3.03    3.89    0.00668    64.84  RIGHT     6.01268E-01    -2.22    1.27983E+00    -3.22
   35.00   300.00      -3.63    3.60    4.35    0.00400    66.50  RIGHT     5.94553E-01    -4.18    1.36756E+00    -4.81
   40.00   300.00      -3.93    4.10    4.74    0.00105    68.35  LEFT      5.74830E-01    -6.43    1.44851E+00    -6.25
   45.00   300.00      -4.47    4.48    5.00    0.00865    70.36  LEFT      5.40091E-01    -9.06    1.51283E+00    -7.50
   50.00   300.00      -5.31    4.69    5.10    0.01880    72.48  LEFT      4.90103E-01   -12.28    1.54968E+00    -8.54
   55.00   300.00      -6.51    4.68    5.00    0.03144    74.68  LEFT      4.26879E-01   -16.41    1.54801E+00    -9.37
   60.00   300.00      -8.12    4.39    4.63    0.04650    76.92  LEFT      3.54877E-01   -21.93    1.49764E+00    -9.99
   65.00   300.00     -10.15    3.75    3.92    0.06395    79.16  LEFT      2.80748E-01   -29.58    1.39047E+00   -10.42
   70.00   300.00     -12.58    2.62    2.75    0.08398    81.35  LEFT      2.12296E-01   -40.28    1.22172E+00   -10.65
   75.00   300.00     -15.26    0.80    0.91    0.10731    83.44  LEFT      1.55833E-01   -54.43    9.91007E-01   -10.70
   80.00   300.00     -18.20   -2.18   -2.07    0.13578    85.38  LEFT      1.11088E-01   -70.43    7.03069E-01   -10.57
   85.00   300.00     -22.65   -7.80   -7.66    0.17388    87.11  LEFT      6.66027E-02   -84.58    3.67858E-01   -10.27
   90.00   300.00    -999.99 -999.99 -999.99    0.00000     0.00            5.18097E-12    85.36    2.21268E-11   170.20
    0.00   310.00      -2.03   -0.51    1.81    0.00000    50.00  LINEAR    7.15105E-01     4.17    8.52229E-01     4.17
    5.00   310.00      -1.99   -0.42    1.88    0.00069    50.15  RIGHT     7.18472E-01     3.95    8.60951E-01     3.87
   10.00   310.00      -1.88   -0.16    2.08    0.00256    50.62  RIGHT     7.27961E-01     3.33    8.86902E-01     3.03
   15.00   310.00      -1.71    0.24    2.38    0.00505    51.41  RIGHT     7.41584E-01     2.34    9.29124E-01     1.74
   20.00   310.00      -1.55    0.76    2.77    0.00737    52.51  RIGHT     7.56151E-01     1.05    9.85780E-01     0.17
   25.00   310.00      -1.42    1.34    3.19    0.00865    53.94  RIGHT     7.67507E-01    -0.48    1.05389E+00    -1.52
   30.00   310.00      -1.38    1.94    3.60    0.00808    55.68  RIGHT     7.70927E-01    -2.22    1.12907E+00    -3.21
   35.00   310.00      -1.48    2.51    3.96    0.00495    57.71  RIGHT     7.61682E-01    -4.18    1.20546E+00    -4.81
   40.00   310.00      -1.78    3.00    4.24    0.00133    60.03  LEFT      7.35762E-01    -6.42    1.27569E+00    -6.25
   45.00   310.00      -2.33    3.37    4.40    0.01116    62.58  LEFT      6.90665E-01    -9.06    1.33112E+00    -7.49
   50.00   310.00      -3.18    3.57    4.40    0.02481    65.34  LEFT      6.26167E-01   -12.28    1.36229E+00    -8.53
   55.00   310.00      -4.39    3.55    4.20    0.04240    68.27  LEFT      5.44905E-01   -16.41    1.35961E+00    -9.36
   60.00   310.00      -6.00    3.26    3.74    0.06393    71.30  LEFT      4.52617E-01   -21.92    1.31428E+00    -9.99
   65.00   310.00      -8.05    2.60    2.96    0.08941    74.38  LEFT      3.57800E-01   -29.58    1.21930E+00   -10.41
   70.00   310.00     -10.48    1.47    1.74    0.11904    77.44  LEFT      2.70385E-01   -40.28    1.07062E+00   -10.65
   75.00   310.00     -13.17   -0.35   -0.13    0.15371    80.39  LEFT      1.98367E-01   -54.43    8.67984E-01   -10.69
   80.00   310.00     -16.11   -3.33   -3.11    0.19589    83.16  LEFT      1.41354E-01   -70.43    6.15550E-01   -10.56
   85.00   310.00     -20.56   -8.96   -8.67    0.25197    85.65  LEFT      8.47282E-02   -84.58    3.21989E-01   -10.27
   90.00   310.00    -999.99 -999.99 -999.99    0.00000     0.00            6.59041E-12    85.37    1.93662E-11   170.20
    0.00   320.00      -0.51   -2.03    1.81    0.00000    40.00  LINEAR    8.52229E-01     4.17    7.15105E-01     4.17
    5.00   320.00      -0.47   -1.94    1.87    0.00069    40.15  RIGHT     8.56162E-01     3.95    7.22357E-01     3.87
   10.00   320.00      -0.35   -1.69    2.04    0.00258    40.62  RIGHT     8.67247E-01     3.33    7.43939E-01     3.03
   15.00   320.00      -0.20   -1.29    2.30    0.00514    41.42  RIGHT     8.83110E-01     2.34    7.79031E-01     1.74
   20.00   320.00      -0.03   -0.78    2.62    0.00760    42.55  RIGHT     8.99952E-01     1.05    8.26072E-01     0.17
   25.00   320.00       0.09   -0.20    2.96    0.00909    44.03  RIGHT     9.12837E-01    -0.48    8.82534E-01    -1.52
   30.00   320.00       0.12    0.39    3.27    0.00868    45.88  RIGHT     9.16170E-01    -2.22    9.44740E-01    -3.21
   35.00   320.00       0.01    0.95    3.51    0.00544    48.09  RIGHT     9.04382E-01    -4.18    1.00777E+00    -4.81
   40.00   320.00      -0.30    1.43    3.66    0.00151    50.68  LEFT      8.72780E-01    -6.42    1.06547E+00    -6.25
   45.00   320.00      -0.86    1.79    3.68    0.01304    53.62  LEFT      8.18484E-01    -9.06    1.11067E+00    -7.49
   50.00   320.00      -1.72    1.99    3.53    0.02994    56.89  LEFT      7.41323E-01   -12.28    1.13557E+00    -8.53
   55.00   320.00      -2.93    1.96    3.18    0.05284    60.45  LEFT      6.44502E-01   -16.40    1.13226E+00    -9.36
   60.00   320.00      -4.55    1.66    2.59    0.08218    64.24  LEFT      5.34866E-01   -21.92    1.09352E+00    -9.99
   65.00   320.00      -6.60    1.00    1.70    0.11820    68.19  LEFT      4.22477E-01   -29.58    1.01368E+00   -10.41
   70.00   320.00      -9.04   -0.14    0.39    0.16121    72.21  LEFT      3.19037E-01   -40.28    8.89449E-01   -10.64
   75.00   320.00     -11.74   -1.96   -1.53    0.21216    76.17  LEFT      2.33927E-01   -54.43    7.20690E-01   -10.69
   80.00   320.00     -14.68   -4.95   -4.51    0.27410    79.94  LEFT      1.66623E-01   -70.43    5.10878E-01   -10.56
   85.00   320.00     -19.13  -10.58  -10.01    0.35564    83.39  LEFT      9.98490E-02   -84.57    2.67167E-01   -10.26
   90.00   320.00    -999.99 -999.99 -999.99    0.00000     0.00            7.76587E-12    85.37    1.60675E-11   170.20
    0.00   330.00       0.56   -4.21    1.81    0.00000    30.00  LINEAR    9.63458E-01     4.17    5.56253E-01     4.17
    5.00   330.00       0.60   -4.13    1.86    0.00061    30.14  RIGHT     9.67822E-01     3.95    5.61846E-01     3.87
   10.00   330.00       0.71   -3.87    2.01    0.00229    30.55  RIGHT     9.80116E-01     3.33    5.78493E-01     3.03
   15.00   330.00       0.86   -3.47    2.22    0.00459    31.26  RIGHT     9.97656E-01     2.34    6.05545E-01     1.74
   20.00   330.00       1.02   -2.97    2.48    0.00689    32.27  RIGHT     1.01615E+00     1.05    6.41772E-01     0.18
   25.00   330.00       1.14   -2.40    2.73    0.00839    33.63  RIGHT     1.03003E+00    -0.48    6.85192E-01    -1.52
   30.00   330.00       1.16   -1.82    2.94    0.00819    35.35  RIGHT     1.03301E+00    -2.22    7.32936E-01    -3.21
   35.00   330.00       1.04   -1.26    3.05    0.00529    37.48  RIGHT     1.01887E+00    -4.18    7.81179E-01    -4.81
   40.00   330.00       0.73   -0.79    3.05    0.00151    40.03  LEFT      9.82388E-01    -6.42    8.25171E-01    -6.25
   45.00   330.00       0.16   -0.43    2.88    0.01362    43.04  LEFT      9.20425E-01    -9.06    8.59390E-01    -7.49
   50.00   330.00      -0.71   -0.25    2.54    0.03267    46.51  LEFT      8.32882E-01   -12.28    8.77840E-01    -8.53
   55.00   330.00      -1.93   -0.28    1.98    0.06042    50.44  LEFT      7.23452E-01   -16.40    8.74494E-01    -9.36
   60.00   330.00      -3.56   -0.59    1.18    0.09861    54.79  LEFT      5.99877E-01   -21.92    8.43862E-01    -9.99
   65.00   330.00      -5.61   -1.26    0.10    0.14869    59.48  LEFT      4.73464E-01   -29.57    7.81647E-01   -10.41
   70.00   330.00      -8.06   -2.40   -1.35    0.21175    64.39  LEFT      3.57302E-01   -40.27    6.85396E-01   -10.64
   75.00   330.00     -10.76   -4.23   -3.36    0.28907    69.38  LEFT      2.61842E-01   -54.43    5.55053E-01   -10.69
   80.00   330.00     -13.71   -7.22   -6.34    0.38413    74.23  LEFT      1.86433E-01   -70.42    3.93305E-01   -10.56
   85.00   330.00     -18.16  -12.86  -11.73    0.50801    78.69  LEFT      1.11693E-01   -84.57    2.05631E-01   -10.26
   90.00   330.00    -999.99 -999.99 -999.99    0.00000     0.00            8.68631E-12    85.37    1.23656E-11   170.21
    0.00   340.00       1.27   -7.51    1.81    0.00000    20.00  LINEAR    1.04541E+00     4.17    3.80499E-01     4.17
    5.00   340.00       1.31   -7.42    1.85    0.00045    20.10  RIGHT     1.05008E+00     3.95    3.84299E-01     3.87
   10.00   340.00       1.41   -7.17    1.98    0.00171    20.41  RIGHT     1.06321E+00     3.33    3.95607E-01     3.03
   15.00   340.00       1.57   -6.78    2.16    0.00346    20.94  RIGHT     1.08189E+00     2.34    4.13976E-01     1.74
   20.00   340.00       1.72   -6.28    2.36    0.00524    21.71  RIGHT     1.10147E+00     1.05    4.38554E-01     0.18
   25.00   340.00       1.83   -5.71    2.54    0.00649    22.75  RIGHT     1.11592E+00    -0.48    4.67977E-01    -1.52
   30.00   340.00       1.85   -5.13    2.65    0.00647    24.10  RIGHT     1.11847E+00    -2.22    5.00279E-01    -3.21
   35.00   340.00       1.73   -4.59    2.64    0.00429    25.80  RIGHT     1.10240E+00    -4.18    5.32844E-01    -4.81
   40.00   340.00       1.41   -4.12    2.48    0.00127    27.90  LEFT      1.06216E+00    -6.42    5.62441E-01    -6.25
   45.00   340.00       0.83   -3.77    2.13    0.01194    30.48  LEFT      9.94413E-01    -9.06    5.85323E-01    -7.49
   50.00   340.00      -0.04   -3.59    1.55    0.03015    33.58  LEFT      8.99152E-01   -12.28    5.97436E-01    -8.53
   55.00   340.00      -1.27   -3.63    0.72    0.05930    37.25  LEFT      7.80439E-01   -16.40    5.94719E-01    -9.36
   60.00   340.00      -2.90   -3.95   -0.38    0.10377    41.49  LEFT      6.46681E-01   -21.92    5.73489E-01    -9.98
   65.00   340.00      -4.97   -4.62   -1.78    0.16868    46.21  LEFT      5.10083E-01   -29.57    5.30872E-01   -10.41
   70.00   340.00      -7.41   -5.76   -3.50    0.25911    51.20  LEFT      3.84726E-01   -40.27    4.65247E-01   -10.64
   75.00   340.00     -10.12   -7.60   -5.67    0.37938    56.07  LEFT      2.81814E-01   -54.43    3.76603E-01   -10.69
   80.00   340.00     -13.07  -10.60   -8.65    0.53378    59.96  LEFT      2.00588E-01   -70.42    2.66770E-01   -10.56
   85.00   340.00     -17.52  -16.23  -13.82    0.72929    59.47  LEFT      1.20148E-01   -84.57    1.39447E-01   -10.26
   90.00   340.00    -999.99 -999.99 -999.99    0.00000     0.00            9.34329E-12    85.37    8.38512E-12   170.21
    0.00   350.00       1.68  -13.40    1.81    0.00000    10.00  LINEAR    1.09560E+00     4.17    1.93185E-01     4.17
    5.00   350.00       1.71  -13.31    1.85    0.00024    10.05  RIGHT     1.10044E+00     3.95    1.95105E-01     3.87
   10.00   350.00       1.82  -13.06    1.96    0.00091    10.22  RIGHT     1.11406E+00     3.33    2.00820E-01     3.03
   15.00   350.00       1.97  -12.67    2.12    0.00186    10.50  RIGHT     1.13340E+00     2.34    2.10102E-01     1.74
   20.00   350.00       2.12  -12.17    2.28    0.00284    10.92  RIGHT     1.15359E+00     1.05    2.22513E-01     0.18
   25.00   350.00       2.23  -11.61    2.41    0.00355    11.48  RIGHT     1.16832E+00    -0.48    2.37360E-01    -1.52
   30.00   350.00       2.25  -11.03    2.45    0.00359    12.22  RIGHT     1.17052E+00    -2.22    2.53641E-01    -3.21
   35.00   350.00       2.12  -10.49    2.35    0.00243    13.18  RIGHT     1.15319E+00    -4.18    2.70032E-01    -4.81
   40.00   350.00       1.79  -10.02    2.07    0.00074    14.39  LEFT      1.11056E+00    -6.42    2.84894E-01    -6.24
   45.00   350.00       1.22   -9.68    1.56    0.00720    15.91  LEFT      1.03922E+00    -9.05    2.96338E-01    -7.49
   50.00   350.00       0.34   -9.51    0.77    0.01907    17.81  LEFT      9.39197E-01   -12.28    3.02321E-01    -8.53
   55.00   350.00      -0.90   -9.55   -0.34    0.03989    20.16  LEFT      8.14803E-01   -16.40    3.00801E-01    -9.36
   60.00   350.00      -2.53   -9.87   -1.80    0.07543    22.94  LEFT      6.74848E-01   -21.92    2.89930E-01    -9.98
   65.00   350.00      -4.60  -10.55   -3.61    0.13436    25.97  LEFT      5.32080E-01   -29.57    2.68274E-01   -10.41
   70.00   350.00      -7.05  -11.70   -5.77    0.22673    28.59  LEFT      4.01174E-01   -40.27    2.35027E-01   -10.64
   75.00   350.00      -9.76  -13.53   -8.24    0.35519    29.08  LEFT      2.93777E-01   -54.42    1.90191E-01   -10.69
   80.00   350.00     -12.71  -16.53  -11.20    0.48723    23.94  LEFT      2.09057E-01   -70.42    1.34694E-01   -10.56
   85.00   350.00     -17.17  -22.17  -15.97    0.52439    11.99  LEFT      1.25205E-01   -84.57    7.03986E-02   -10.26
   90.00   350.00    -999.99 -999.99 -999.99    0.00000     0.00            9.73606E-12    85.37    4.23296E-12   170.21
    0.00   360.00       1.81 -999.99    1.81    0.00000     0.00  LINEAR    1.11251E+00     4.17    1.87947E-11  -109.97
    5.00   360.00       1.85 -999.99    1.85    0.00000     0.00  LINEAR    1.11740E+00     3.95    4.47390E-11   120.71
   10.00   360.00       1.95 -198.71    1.95    0.00000     0.00  LINEAR    1.13118E+00     3.33    1.04770E-10   111.94
   15.00   360.00       2.10 -194.50    2.10    0.00000     0.00  LINEAR    1.15073E+00     2.34    1.70190E-10   109.00
   20.00   360.00       2.25 -191.43    2.25    0.00000     0.00  LINEAR    1.17112E+00     1.05    2.42224E-10   107.20
   25.00   360.00       2.36 -188.98    2.36    0.00000     0.00  LINEAR    1.18593E+00    -0.48    3.21405E-10   105.84
   30.00   360.00       2.38 -186.93    2.38    0.00000     0.00  LINEAR    1.18800E+00    -2.22    4.06880E-10   104.75
   35.00   360.00       2.25 -185.21    2.25    0.00000     0.00  LINEAR    1.17023E+00    -4.18    4.96077E-10   103.87
   40.00   360.00       1.92 -183.78    1.92    0.00000     0.00  LINEAR    1.12678E+00    -6.42    5.84546E-10   103.17
   45.00   360.00       1.34 -182.65    1.34    0.00000     0.00  LINEAR    1.05421E+00    -9.05    6.66014E-10   102.64
   50.00   360.00       0.46 -181.82    0.46    0.00000     0.00  LINEAR    9.52586E-01   -12.28    7.32713E-10   102.27
   55.00   360.00      -0.78 -181.32   -0.78    0.00000     0.00  LINEAR    8.26280E-01   -16.40    7.76024E-10   102.05
   60.00   360.00      -2.41 -181.19   -2.41    0.00000     0.00  LINEAR    6.84244E-01   -21.92    7.87413E-10   101.95
   65.00   360.00      -4.48 -181.51   -4.48    0.00000     0.00  LINEAR    5.39411E-01   -29.57    7.59592E-10   101.98
   70.00   360.00      -6.93 -182.37   -6.93    0.00000     0.00  LINEAR    4.06650E-01   -40.27    6.87742E-10   102.12
   75.00   360.00      -9.64 -183.99   -9.64    0.00000     0.00  LINEAR    2.97757E-01   -54.42    5.70608E-10   102.37
   80.00   360.00     -12.60 -186.84  -12.60    0.00000     0.00  LINEAR    2.11873E-01   -70.42    4.11237E-10   102.71
   85.00   360.00     -17.05 -192.38  -17.05    0.00000     0.00  LINEAR    1.26886E-01   -84.57    2.17173E-10   103.13
   90.00   360.00    -999.99 -999.99 -999.99    0.00000     0.00            9.86662E-12    85.38    2.66868E-18  -100.67


   AVERAGE POWER GAIN= 1.58920E+00       SOLID ANGLE USED IN AVERAGING=( 2.0000)*PI STERADIANS.








 ***** DATA CARD NO.  5   EN   0    19    37  1003  0.00000E+00  0.00000E+00  5.00000E+00  1.00000E+01  0.00000E+00  0.00000E+00

 RUN TIME =     0.313
