1



                                 *********************************************

                                    NUMERICAL ELECTROMAGNETICS CODE (NEC-2D)

                                 *********************************************




                                     - - - - COMMENTS - - - -


                                                                                                     
                                                                                                     




                                 - - - STRUCTURE SPECIFICATION - - -

                                     COORDINATES MUST BE INPUT IN
                                     METERS OR BE SCALED TO METERS
                                     BEFORE STRUCTURE INPUT IS ENDED


  WIRE                                                                               NO. OF    FIRST  LAST     TAG
  NO.        X1         Y1         Z1          X2         Y2         Z2      RADIUS   SEG.     SEG.   SEG.     NO.
     1    0.09600    0.00000    0.21700     0.09500    0.01600    0.21700    0.00207      1        1     1       1
     2    0.09500    0.01600    0.21700     0.09100    0.03300    0.21700    0.00207      1        2     2       1
     3    0.09100    0.03300    0.21700     0.08400    0.04800    0.21700    0.00207      1        3     3       1
     4    0.08400    0.04800    0.21700     0.07400    0.06100    0.21700    0.00207      1        4     4       1
     5    0.07400    0.06100    0.21700     0.06300    0.07300    0.21700    0.00207      1        5     5       1
     6    0.06300    0.07300    0.21700     0.04900    0.08300    0.21700    0.00207      1        6     6       1
     7    0.04900    0.08300    0.21700     0.03400    0.09000    0.21700    0.00207      1        7     7       1
     8    0.03400    0.09000    0.21700     0.01900    0.09500    0.21700    0.00207      1        8     8       1
     9    0.01900    0.09500    0.21700     0.00200    0.09600    0.21700    0.00207      1        9     9       1
    10    0.00200    0.09600    0.21700    -0.01400    0.09500    0.21700    0.00207      1       10    10       1
    11   -0.01400    0.09500    0.21700    -0.03100    0.09100    0.21700    0.00207      1       11    11       1
    12   -0.03100    0.09100    0.21700    -0.04600    0.08500    0.21700    0.00207      1       12    12       1
    13   -0.04600    0.08500    0.21700    -0.06000    0.07600    0.21700    0.00207      1       13    13       1
    14   -0.06000    0.07600    0.21700    -0.07200    0.06400    0.21700    0.00207      1       14    14       1
    15   -0.07200    0.06400    0.21700    -0.08200    0.05100    0.21700    0.00207      1       15    15       1
    16   -0.08200    0.05100    0.21700    -0.08900    0.03600    0.21700    0.00207      1       16    16       1
    17   -0.08900    0.03600    0.21700    -0.09400    0.02100    0.21700    0.00207      1       17    17       1
    18   -0.09400    0.02100    0.21700    -0.09600    0.00400    0.21700    0.00207      1       18    18       1
    19   -0.09600    0.00400    0.21700    -0.09600   -0.01200    0.21700    0.00207      1       19    19       1
    20   -0.09600   -0.01200    0.21700    -0.09200   -0.02900    0.21700    0.00207      1       20    20       1
    21   -0.09200   -0.02900    0.21700    -0.08600   -0.04400    0.21700    0.00207      1       21    21       1
    22   -0.08600   -0.04400    0.21700    -0.07700   -0.05800    0.21700    0.00207      1       22    22       1
    23   -0.07700   -0.05800    0.21700    -0.06600   -0.07000    0.21700    0.00207      1       23    23       1
    24   -0.06600   -0.07000    0.21700    -0.05300   -0.08000    0.21700    0.00207      1       24    24       1
    25   -0.05300   -0.08000    0.21700    -0.03800   -0.08800    0.21700    0.00207      1       25    25       1
    26   -0.03800   -0.08800    0.21700    -0.02300   -0.09400    0.21700    0.00207      1       26    26       1
    27   -0.02300   -0.09400    0.21700    -0.00600   -0.09600    0.21700    0.00207      1       27    27       1
    28   -0.00600   -0.09600    0.21700     0.01000   -0.09600    0.21700    0.00207      1       28    28       1
    29    0.01000   -0.09600    0.21700     0.02700   -0.09300    0.21700    0.00207      1       29    29       1
    30    0.02700   -0.09300    0.21700     0.04200   -0.08700    0.21700    0.00207      1       30    30       1
    31    0.04200   -0.08700    0.21700     0.05600   -0.07800    0.21700    0.00207      1       31    31       1
    32    0.05600   -0.07800    0.21700     0.06900   -0.06700    0.21700    0.00207      1       32    32       1
    33    0.06900   -0.06700    0.21700     0.07900   -0.05500    0.21700    0.00207      1       33    33       1
    34    0.07900   -0.05500    0.21700     0.08800   -0.04000    0.21700    0.00207      1       34    34       1
    35    0.08800   -0.04000    0.21700     0.09300   -0.02500    0.21700    0.00207      1       35    35       1
    36    0.09300   -0.02500    0.21700     0.09600   -0.00800    0.21700    0.00207      1       36    36     999
    37    0.09600    0.00000    0.00000     0.09500    0.01600    0.00000    0.00207      1       37    37       2
    38    0.09500    0.01600    0.00000     0.09100    0.03300    0.00000    0.00207      1       38    38       2
    39    0.09100    0.03300    0.00000     0.08400    0.04800    0.00000    0.00207      1       39    39       2
    40    0.08400    0.04800    0.00000     0.07400    0.06100    0.00000    0.00207      1       40    40       2
    41    0.07400    0.06100    0.00000     0.06300    0.07300    0.00000    0.00207      1       41    41       2
    42    0.06300    0.07300    0.00000     0.04900    0.08300    0.00000    0.00207      1       42    42       2
    43    0.04900    0.08300    0.00000     0.03400    0.09000    0.00000    0.00207      1       43    43       2
    44    0.03400    0.09000    0.00000     0.01900    0.09500    0.00000    0.00207      1       44    44       2
    45    0.01900    0.09500    0.00000     0.00200    0.09600    0.00000    0.00207      1       45    45       2
    46    0.00200    0.09600    0.00000    -0.01400    0.09500    0.00000    0.00207      1       46    46       2
    47   -0.01400    0.09500    0.00000    -0.03100    0.09100    0.00000    0.00207      1       47    47       2
    48   -0.03100    0.09100    0.00000    -0.04600    0.08500    0.00000    0.00207      1       48    48       2
    49   -0.04600    0.08500    0.00000    -0.06000    0.07600    0.00000    0.00207      1       49    49       2
    50   -0.06000    0.07600    0.00000    -0.07200    0.06400    0.00000    0.00207      1       50    50       2
    51   -0.07200    0.06400    0.00000    -0.08200    0.05100    0.00000    0.00207      1       51    51       2
    52   -0.08200    0.05100    0.00000    -0.08900    0.03600    0.00000    0.00207      1       52    52       2
    53   -0.08900    0.03600    0.00000    -0.09400    0.02100    0.00000    0.00207      1       53    53       2
    54   -0.09400    0.02100    0.00000    -0.09600    0.00400    0.00000    0.00207      1       54    54       2
    55   -0.09600    0.00400    0.00000    -0.09600   -0.01200    0.00000    0.00207      1       55    55       2
    56   -0.09600   -0.01200    0.00000    -0.09200   -0.02900    0.00000    0.00207      1       56    56       2
    57   -0.09200   -0.02900    0.00000    -0.08600   -0.04400    0.00000    0.00207      1       57    57       2
    58   -0.08600   -0.04400    0.00000    -0.07700   -0.05800    0.00000    0.00207      1       58    58       2
    59   -0.07700   -0.05800    0.00000    -0.06600   -0.07000    0.00000    0.00207      1       59    59       2
    60   -0.06600   -0.07000    0.00000    -0.05300   -0.08000    0.00000    0.00207      1       60    60       2
    61   -0.05300   -0.08000    0.00000    -0.03800   -0.08800    0.00000    0.00207      1       61    61       2
    62   -0.03800   -0.08800    0.00000    -0.02300   -0.09400    0.00000    0.00207      1       62    62       2
    63   -0.02300   -0.09400    0.00000    -0.00600   -0.09600    0.00000    0.00207      1       63    63       2
    64   -0.00600   -0.09600    0.00000     0.01000   -0.09600    0.00000    0.00207      1       64    64       2
    65    0.01000   -0.09600    0.00000     0.02700   -0.09300    0.00000    0.00207      1       65    65       2
    66    0.02700   -0.09300    0.00000     0.04200   -0.08700    0.00000    0.00207      1       66    66       2
    67    0.04200   -0.08700    0.00000     0.05600   -0.07800    0.00000    0.00207      1       67    67       2
    68    0.05600   -0.07800    0.00000     0.06900   -0.06700    0.00000    0.00207      1       68    68       2
    69    0.06900   -0.06700    0.00000     0.07900   -0.05500    0.00000    0.00207      1       69    69       2
    70    0.07900   -0.05500    0.00000     0.08800   -0.04000    0.00000    0.00207      1       70    70       2
    71    0.08800   -0.04000    0.00000     0.09300   -0.02500    0.00000    0.00207      1       71    71       2
    72    0.09300   -0.02500    0.00000     0.09600   -0.00800    0.00000    0.00207      1       72    72       2
    73    0.09600    0.00000    0.00000     0.09600    0.00000    0.21700    0.00207      5       73    77       3
    74    0.09600   -0.00800    0.00000     0.09600   -0.00800    0.21700    0.00207      5       78    82       4
      THE STRUCTURE HAS BEEN MOVED, MOVE DATA CARD IS -
        0    0   0.00000   0.00000   0.00000   0.00000   0.00000   8.00000   0.00000

   GROUND PLANE SPECIFIED.

   TOTAL SEGMENTS USED=   82     NO. SEG. IN A SYMMETRIC CELL=   82     SYMMETRY FLAG=  0


         - MULTIPLE WIRE JUNCTIONS -
 JUNCTION    SEGMENTS  (- FOR END 1, + FOR END 2)
  NONE




                                 - - - - SEGMENTATION DATA - - - -

                                        COORDINATES IN METERS

                         I+ AND I- INDICATE THE SEGMENTS BEFORE AND AFTER I


  SEG.   COORDINATES OF SEG. CENTER     SEG.     ORIENTATION ANGLES    WIRE    CONNECTION DATA   TAG
  NO.       X         Y         Z       LENGTH     ALPHA     BETA      RADIUS    I-   I    I+    NO.
     1   0.09550   0.00800   8.21700   0.01603    0.00000  93.57633   0.00207    77    1    2      1
     2   0.09300   0.02450   8.21700   0.01746    0.00000 103.24052   0.00207     1    2    3      1
     3   0.08750   0.04050   8.21700   0.01655    0.00000 115.01689   0.00207     2    3    4      1
     4   0.07900   0.05450   8.21700   0.01640    0.00000 127.56859   0.00207     3    4    5      1
     5   0.06850   0.06700   8.21700   0.01628    0.00000 132.51045   0.00207     4    5    6      1
     6   0.05600   0.07800   8.21700   0.01720    0.00000 144.46232   0.00207     5    6    7      1
     7   0.04150   0.08650   8.21700   0.01655    0.00000 154.98311   0.00207     6    7    8      1
     8   0.02650   0.09250   8.21700   0.01581    0.00000 161.56505   0.00207     7    8    9      1
     9   0.01050   0.09550   8.21700   0.01703    0.00000 176.63354   0.00207     8    9   10      1
    10  -0.00600   0.09550   8.21700   0.01603    0.00000-176.42367   0.00207     9   10   11      1
    11  -0.02250   0.09300   8.21700   0.01746    0.00000-166.75948   0.00207    10   11   12      1
    12  -0.03850   0.08800   8.21700   0.01616    0.00000-158.19859   0.00207    11   12   13      1
    13  -0.05300   0.08050   8.21700   0.01664    0.00000-147.26477   0.00207    12   13   14      1
    14  -0.06600   0.07000   8.21700   0.01697    0.00000-135.00000   0.00207    13   14   15      1
    15  -0.07700   0.05750   8.21700   0.01640    0.00000-127.56859   0.00207    14   15   16      1
    16  -0.08550   0.04350   8.21700   0.01655    0.00000-115.01689   0.00207    15   16   17      1
    17  -0.09150   0.02850   8.21700   0.01581    0.00000-108.43495   0.00207    16   17   18      1
    18  -0.09500   0.01250   8.21700   0.01712    0.00000 -96.70984   0.00207    17   18   19      1
    19  -0.09600  -0.00400   8.21700   0.01600    0.00000 -90.00000   0.00207    18   19   20      1
    20  -0.09400  -0.02050   8.21700   0.01746    0.00000 -76.75948   0.00207    19   20   21      1
    21  -0.08900  -0.03650   8.21700   0.01616    0.00000 -68.19859   0.00207    20   21   22      1
    22  -0.08150  -0.05100   8.21700   0.01664    0.00000 -57.26477   0.00207    21   22   23      1
    23  -0.07150  -0.06400   8.21700   0.01628    0.00000 -47.48955   0.00207    22   23   24      1
    24  -0.05950  -0.07500   8.21700   0.01640    0.00000 -37.56859   0.00207    23   24   25      1
    25  -0.04550  -0.08400   8.21700   0.01700    0.00000 -28.07249   0.00207    24   25   26      1
    26  -0.03050  -0.09100   8.21700   0.01616    0.00000 -21.80141   0.00207    25   26   27      1
    27  -0.01450  -0.09500   8.21700   0.01712    0.00000  -6.70984   0.00207    26   27   28      1
    28   0.00200  -0.09600   8.21700   0.01600    0.00000   0.00000   0.00207    27   28   29      1
    29   0.01850  -0.09450   8.21700   0.01726    0.00000  10.00798   0.00207    28   29   30      1
    30   0.03450  -0.09000   8.21700   0.01616    0.00000  21.80141   0.00207    29   30   31      1
    31   0.04900  -0.08250   8.21700   0.01664    0.00000  32.73523   0.00207    30   31   32      1
    32   0.06250  -0.07250   8.21700   0.01703    0.00000  40.23636   0.00207    31   32   33      1
    33   0.07400  -0.06100   8.21700   0.01562    0.00000  50.19443   0.00207    32   33   34      1
    34   0.08350  -0.04750   8.21700   0.01749    0.00000  59.03624   0.00207    33   34   35      1
    35   0.09050  -0.03250   8.21700   0.01581    0.00000  71.56505   0.00207    34   35   36      1
    36   0.09450  -0.01650   8.21700   0.01726    0.00000  79.99202   0.00207    35   36  -82    999
    37   0.09550   0.00800   8.00000   0.01603    0.00000  93.57633   0.00207   -73   37   38      2
    38   0.09300   0.02450   8.00000   0.01746    0.00000 103.24052   0.00207    37   38   39      2
    39   0.08750   0.04050   8.00000   0.01655    0.00000 115.01689   0.00207    38   39   40      2
    40   0.07900   0.05450   8.00000   0.01640    0.00000 127.56859   0.00207    39   40   41      2
    41   0.06850   0.06700   8.00000   0.01628    0.00000 132.51045   0.00207    40   41   42      2
    42   0.05600   0.07800   8.00000   0.01720    0.00000 144.46232   0.00207    41   42   43      2
    43   0.04150   0.08650   8.00000   0.01655    0.00000 154.98311   0.00207    42   43   44      2
    44   0.02650   0.09250   8.00000   0.01581    0.00000 161.56505   0.00207    43   44   45      2
    45   0.01050   0.09550   8.00000   0.01703    0.00000 176.63354   0.00207    44   45   46      2
    46  -0.00600   0.09550   8.00000   0.01603    0.00000-176.42367   0.00207    45   46   47      2
    47  -0.02250   0.09300   8.00000   0.01746    0.00000-166.75948   0.00207    46   47   48      2
    48  -0.03850   0.08800   8.00000   0.01616    0.00000-158.19859   0.00207    47   48   49      2
    49  -0.05300   0.08050   8.00000   0.01664    0.00000-147.26477   0.00207    48   49   50      2
    50  -0.06600   0.07000   8.00000   0.01697    0.00000-135.00000   0.00207    49   50   51      2
    51  -0.07700   0.05750   8.00000   0.01640    0.00000-127.56859   0.00207    50   51   52      2
    52  -0.08550   0.04350   8.00000   0.01655    0.00000-115.01689   0.00207    51   52   53      2
    53  -0.09150   0.02850   8.00000   0.01581    0.00000-108.43495   0.00207    52   53   54      2
    54  -0.09500   0.01250   8.00000   0.01712    0.00000 -96.70984   0.00207    53   54   55      2
    55  -0.09600  -0.00400   8.00000   0.01600    0.00000 -90.00000   0.00207    54   55   56      2
    56  -0.09400  -0.02050   8.00000   0.01746    0.00000 -76.75948   0.00207    55   56   57      2
    57  -0.08900  -0.03650   8.00000   0.01616    0.00000 -68.19859   0.00207    56   57   58      2
    58  -0.08150  -0.05100   8.00000   0.01664    0.00000 -57.26477   0.00207    57   58   59      2
    59  -0.07150  -0.06400   8.00000   0.01628    0.00000 -47.48955   0.00207    58   59   60      2
    60  -0.05950  -0.07500   8.00000   0.01640    0.00000 -37.56859   0.00207    59   60   61      2
    61  -0.04550  -0.08400   8.00000   0.01700    0.00000 -28.07249   0.00207    60   61   62      2
    62  -0.03050  -0.09100   8.00000   0.01616    0.00000 -21.80141   0.00207    61   62   63      2
    63  -0.01450  -0.09500   8.00000   0.01712    0.00000  -6.70984   0.00207    62   63   64      2
    64   0.00200  -0.09600   8.00000   0.01600    0.00000   0.00000   0.00207    63   64   65      2
    65   0.01850  -0.09450   8.00000   0.01726    0.00000  10.00798   0.00207    64   65   66      2
    66   0.03450  -0.09000   8.00000   0.01616    0.00000  21.80141   0.00207    65   66   67      2
    67   0.04900  -0.08250   8.00000   0.01664    0.00000  32.73523   0.00207    66   67   68      2
    68   0.06250  -0.07250   8.00000   0.01703    0.00000  40.23636   0.00207    67   68   69      2
    69   0.07400  -0.06100   8.00000   0.01562    0.00000  50.19443   0.00207    68   69   70      2
    70   0.08350  -0.04750   8.00000   0.01749    0.00000  59.03624   0.00207    69   70   71      2
    71   0.09050  -0.03250   8.00000   0.01581    0.00000  71.56505   0.00207    70   71   72      2
    72   0.09450  -0.01650   8.00000   0.01726    0.00000  79.99202   0.00207    71   72   78      2
    73   0.09600   0.00000   8.02170   0.04340   90.00000   0.00000   0.00207   -37   73   74      3
    74   0.09600   0.00000   8.06510   0.04340   90.00000   0.00000   0.00207    73   74   75      3
    75   0.09600   0.00000   8.10850   0.04340   90.00000   0.00000   0.00207    74   75   76      3
    76   0.09600   0.00000   8.15190   0.04340   90.00000   0.00000   0.00207    75   76   77      3
    77   0.09600   0.00000   8.19530   0.04340   90.00000   0.00000   0.00207    76   77    1      3
    78   0.09600  -0.00800   8.02170   0.04340   90.00000   0.00000   0.00207    72   78   79      4
    79   0.09600  -0.00800   8.06510   0.04340   90.00000   0.00000   0.00207    78   79   80      4
    80   0.09600  -0.00800   8.10850   0.04340   90.00000   0.00000   0.00207    79   80   81      4
    81   0.09600  -0.00800   8.15190   0.04340   90.00000   0.00000   0.00207    80   81   82      4
    82   0.09600  -0.00800   8.19530   0.04340   90.00000   0.00000   0.00207    81   82  -36      4






 ***** DATA CARD NO.  1   GN   2     0     0     0  1.10000E+01  1.00000E-02  0.00000E+00  0.00000E+00  0.00000E+00  0.00000E+00
 ***** DATA CARD NO.  2   EK   0     0     0     0  0.00000E+00  0.00000E+00  0.00000E+00  0.00000E+00  0.00000E+00  0.00000E+00
 ***** DATA CARD NO.  3   LD   5     0     0     0  5.80000E+07  0.00000E+00  0.00000E+00  0.00000E+00  0.00000E+00  0.00000E+00
 ***** DATA CARD NO.  4   EX   0   999     1     0  1.00000E+00  0.00000E+00  0.00000E+00  0.00000E+00  0.00000E+00  0.00000E+00
 ***** DATA CARD NO.  5   FR   0     1     0     0  1.44200E+02  0.00000E+00  0.00000E+00  0.00000E+00  0.00000E+00  0.00000E+00
 ***** DATA CARD NO.  6   RP   0    19    37  1003  0.00000E+00  0.00000E+00  5.00000E+00  1.00000E+01  0.00000E+00  0.00000E+00




                                 - - - - - - FREQUENCY - - - - - -

                                    FREQUENCY= 1.4420E+02 MHZ
                                    WAVELENGTH= 2.0791E+00 METERS




                    APPROXIMATE INTEGRATION EMPLOYED FOR SEGMENTS MORE THAN   1.000 WAVELENGTHS APART

                    THE EXTENDED THIN WIRE KERNEL WILL BE USED



                               - - - STRUCTURE IMPEDANCE LOADING - - -


       LOCATION          RESISTANCE   INDUCTANCE  CAPACITANCE       IMPEDANCE (OHMS)     CONDUCTIVITY    TYPE
    ITAG FROM THRU          OHMS        HENRYS       FARADS        REAL      IMAGINARY    MHOS/METER

     ALL                                                                                 5.8000E+07     WIRE  



                                  - - - ANTENNA ENVIRONMENT - - -

                                        FINITE GROUND.  SOMMERFELD SOLUTION
                                        RELATIVE DIELECTRIC CONST.= 11.000
                                        CONDUCTIVITY= 1.000E-02 MHOS/METER
                                        COMPLEX DIELECTRIC CONSTANT= 1.10000E+01-1.24660E+00



                                - - - MATRIX TIMING - - -

                        FILL=    0.031 SEC.,  FACTOR=    0.000 SEC.



                                          - - - ANTENNA INPUT PARAMETERS - - -

   TAG   SEG.    VOLTAGE (VOLTS)         CURRENT (AMPS)         IMPEDANCE (OHMS)        ADMITTANCE (MHOS)      POWER
   NO.   NO.    REAL        IMAG.       REAL        IMAG.       REAL        IMAG.       REAL        IMAG.     (WATTS)
   999    36 1.00000E+00 0.00000E+00 3.12291E-02-2.97805E-02 1.67706E+01 1.59927E+01 3.12291E-02-2.97805E-02 1.56146E-02



                             - - - CURRENTS AND LOCATION - - -

                                 DISTANCES IN WAVELENGTHS


  SEG.  TAG    COORD. OF SEG. CENTER     SEG.            - - - CURRENT (AMPS) - - -
  NO.   NO.     X        Y        Z      LENGTH     REAL        IMAG.       MAG.        PHASE
     1    1   0.0459   0.0038   3.9523  0.00771   3.0922E-02 -3.4421E-02  4.6271E-02  -48.066
     2    1   0.0447   0.0118   3.9523  0.00840   3.3457E-02 -3.6987E-02  4.9874E-02  -47.868
     3    1   0.0421   0.0195   3.9523  0.00796   3.5542E-02 -3.9088E-02  5.2831E-02  -47.720
     4    1   0.0380   0.0262   3.9523  0.00789   3.7327E-02 -4.0880E-02  5.5357E-02  -47.601
     5    1   0.0329   0.0322   3.9523  0.00783   3.8924E-02 -4.2477E-02  5.7614E-02  -47.499
     6    1   0.0269   0.0375   3.9523  0.00828   4.0409E-02 -4.3954E-02  5.9706E-02  -47.406
     7    1   0.0200   0.0416   3.9523  0.00796   4.1768E-02 -4.5296E-02  6.1614E-02  -47.321
     8    1   0.0127   0.0445   3.9523  0.00761   4.2949E-02 -4.6453E-02  6.3265E-02  -47.245
     9    1   0.0051   0.0459   3.9523  0.00819   4.4031E-02 -4.7503E-02  6.4771E-02  -47.172
    10    1  -0.0029   0.0459   3.9523  0.00771   4.5007E-02 -4.8437E-02  6.6119E-02  -47.102
    11    1  -0.0108   0.0447   3.9523  0.00840   4.5883E-02 -4.9259E-02  6.7318E-02  -47.032
    12    1  -0.0185   0.0423   3.9523  0.00777   4.6650E-02 -4.9961E-02  6.8354E-02  -46.963
    13    1  -0.0255   0.0387   3.9523  0.00801   4.7290E-02 -5.0525E-02  6.9204E-02  -46.895
    14    1  -0.0317   0.0337   3.9523  0.00816   4.7837E-02 -5.0982E-02  6.9911E-02  -46.823
    15    1  -0.0370   0.0277   3.9523  0.00789   4.8271E-02 -5.1313E-02  7.0449E-02  -46.750
    16    1  -0.0411   0.0209   3.9523  0.00796   4.8593E-02 -5.1521E-02  7.0821E-02  -46.675
    17    1  -0.0440   0.0137   3.9523  0.00761   4.8808E-02 -5.1610E-02  7.1034E-02  -46.598
    18    1  -0.0457   0.0060   3.9523  0.00823   4.8923E-02 -5.1583E-02  7.1094E-02  -46.516
    19    1  -0.0462  -0.0019   3.9523  0.00770   4.8934E-02 -5.1438E-02  7.0996E-02  -46.429
    20    1  -0.0452  -0.0099   3.9523  0.00840   4.8837E-02 -5.1170E-02  7.0735E-02  -46.336
    21    1  -0.0428  -0.0176   3.9523  0.00777   4.8631E-02 -5.0780E-02  7.0310E-02  -46.238
    22    1  -0.0392  -0.0245   3.9523  0.00801   4.8324E-02 -5.0281E-02  6.9738E-02  -46.137
    23    1  -0.0344  -0.0308   3.9523  0.00783   4.7911E-02 -4.9665E-02  6.9008E-02  -46.030
    24    1  -0.0286  -0.0361   3.9523  0.00789   4.7396E-02 -4.8940E-02  6.8129E-02  -45.918
    25    1  -0.0219  -0.0404   3.9523  0.00818   4.6762E-02 -4.8082E-02  6.7071E-02  -45.797
    26    1  -0.0147  -0.0438   3.9523  0.00777   4.6023E-02 -4.7113E-02  6.5862E-02  -45.671
    27    1  -0.0070  -0.0457   3.9523  0.00823   4.5171E-02 -4.6025E-02  6.4488E-02  -45.536
    28    1   0.0010  -0.0462   3.9523  0.00770   4.4210E-02 -4.4824E-02  6.2958E-02  -45.395
    29    1   0.0089  -0.0455   3.9523  0.00830   4.3129E-02 -4.3499E-02  6.1255E-02  -45.245
    30    1   0.0166  -0.0433   3.9523  0.00777   4.1922E-02 -4.2043E-02  5.9372E-02  -45.083
    31    1   0.0236  -0.0397   3.9523  0.00801   4.0612E-02 -4.0489E-02  5.7347E-02  -44.913
    32    1   0.0301  -0.0349   3.9523  0.00819   3.9129E-02 -3.8753E-02  5.5072E-02  -44.723
    33    1   0.0356  -0.0293   3.9523  0.00751   3.7542E-02 -3.6919E-02  5.2653E-02  -44.521
    34    1   0.0402  -0.0228   3.9523  0.00841   3.5754E-02 -3.4875E-02  4.9946E-02  -44.287
    35    1   0.0435  -0.0156   3.9523  0.00761   3.3720E-02 -3.2563E-02  4.6877E-02  -44.000
    36  999   0.0455  -0.0079   3.9523  0.00830   3.1229E-02 -2.9781E-02  4.3152E-02  -43.640
    37    2   0.0459   0.0038   3.8479  0.00771   3.1212E-02 -2.8762E-02  4.2443E-02  -42.661
    38    2   0.0447   0.0118   3.8479  0.00840   3.3736E-02 -3.1394E-02  4.6084E-02  -42.940
    39    2   0.0421   0.0195   3.8479  0.00796   3.5809E-02 -3.3589E-02  4.9097E-02  -43.168
    40    2   0.0380   0.0262   3.8479  0.00789   3.7581E-02 -3.5490E-02  5.1690E-02  -43.361
    41    2   0.0329   0.0322   3.8479  0.00783   3.9165E-02 -3.7212E-02  5.4024E-02  -43.535
    42    2   0.0269   0.0375   3.8479  0.00828   4.0635E-02 -3.8832E-02  5.6206E-02  -43.700
    43    2   0.0200   0.0416   3.8479  0.00796   4.1978E-02 -4.0333E-02  5.8214E-02  -43.855
    44    2   0.0127   0.0445   3.8479  0.00761   4.3143E-02 -4.1656E-02  5.9971E-02  -43.995
    45    2   0.0051   0.0459   3.8479  0.00819   4.4208E-02 -4.2886E-02  6.1592E-02  -44.130
    46    2  -0.0029   0.0459   3.8479  0.00771   4.5168E-02 -4.4013E-02  6.3066E-02  -44.258
    47    2  -0.0108   0.0447   3.8479  0.00840   4.6026E-02 -4.5043E-02  6.4399E-02  -44.381
    48    2  -0.0185   0.0423   3.8479  0.00777   4.6774E-02 -4.5963E-02  6.5578E-02  -44.499
    49    2  -0.0255   0.0387   3.8479  0.00801   4.7396E-02 -4.6751E-02  6.6574E-02  -44.608
    50    2  -0.0317   0.0337   3.8479  0.00816   4.7924E-02 -4.7447E-02  6.7438E-02  -44.713
    51    2  -0.0370   0.0277   3.8479  0.00789   4.8338E-02 -4.8023E-02  6.8138E-02  -44.813
    52    2  -0.0411   0.0209   3.8479  0.00796   4.8642E-02 -4.8481E-02  6.8676E-02  -44.905
    53    2  -0.0440   0.0137   3.8479  0.00761   4.8837E-02 -4.8823E-02  6.9056E-02  -44.991
    54    2  -0.0457   0.0060   3.8479  0.00823   4.8933E-02 -4.9060E-02  6.9291E-02  -45.074
    55    2  -0.0462  -0.0019   3.8479  0.00770   4.8924E-02 -4.9185E-02  6.9374E-02  -45.153
    56    2  -0.0452  -0.0099   3.8479  0.00840   4.8807E-02 -4.9197E-02  6.9300E-02  -45.228
    57    2  -0.0428  -0.0176   3.8479  0.00777   4.8581E-02 -4.9091E-02  6.9065E-02  -45.299
    58    2  -0.0392  -0.0245   3.8479  0.00801   4.8255E-02 -4.8874E-02  6.8682E-02  -45.365
    59    2  -0.0344  -0.0308   3.8479  0.00783   4.7822E-02 -4.8543E-02  6.8143E-02  -45.428
    60    2  -0.0286  -0.0361   3.8479  0.00789   4.7289E-02 -4.8103E-02  6.7455E-02  -45.489
    61    2  -0.0219  -0.0404   3.8479  0.00818   4.6635E-02 -4.7538E-02  6.6594E-02  -45.549
    62    2  -0.0147  -0.0438   3.8479  0.00777   4.5878E-02 -4.6861E-02  6.5580E-02  -45.607
    63    2  -0.0070  -0.0457   3.8479  0.00823   4.5008E-02 -4.6066E-02  6.4403E-02  -45.666
    64    2   0.0010  -0.0462   3.8479  0.00770   4.4030E-02 -4.5157E-02  6.3069E-02  -45.724
    65    2   0.0089  -0.0455   3.8479  0.00830   4.2932E-02 -4.4124E-02  6.1563E-02  -45.785
    66    2   0.0166  -0.0433   3.8479  0.00777   4.1708E-02 -4.2961E-02  5.9877E-02  -45.848
    67    2   0.0236  -0.0397   3.8479  0.00801   4.0383E-02 -4.1692E-02  5.8044E-02  -45.914
    68    2   0.0301  -0.0349   3.8479  0.00819   3.8885E-02 -4.0249E-02  5.5964E-02  -45.987
    69    2   0.0356  -0.0293   3.8479  0.00751   3.7284E-02 -3.8698E-02  5.3736E-02  -46.066
    70    2   0.0402  -0.0228   3.8479  0.00841   3.5483E-02 -3.6943E-02  5.1223E-02  -46.155
    71    2   0.0435  -0.0156   3.8479  0.00761   3.3437E-02 -3.4940E-02  4.8361E-02  -46.259
    72    2   0.0455  -0.0079   3.8479  0.00830   3.0935E-02 -3.2469E-02  4.4847E-02  -46.385
    73    3   0.0462   0.0000   3.8583  0.02087  -2.4167E-02  2.1552E-02  3.2381E-02  138.274
    74    3   0.0462   0.0000   3.8792  0.02087  -1.2386E-02  9.5363E-03  1.5631E-02  142.405
    75    3   0.0462   0.0000   3.9001  0.02087  -1.5754E-04 -2.9040E-03  2.9082E-03  -93.105
    76    3   0.0462   0.0000   3.9210  0.02087   1.2074E-02 -1.5319E-02  1.9505E-02  -51.757
    77    3   0.0462   0.0000   3.9418  0.02087   2.3866E-02 -2.7268E-02  3.6237E-02  -48.807
    78    4   0.0462  -0.0038   3.8583  0.02087   2.3795E-02 -2.5323E-02  3.4748E-02  -46.781
    79    4   0.0462  -0.0038   3.8792  0.02087   1.2041E-02 -1.3533E-02  1.8114E-02  -48.340
    80    4   0.0462  -0.0038   3.9001  0.02087  -1.5985E-04 -1.2911E-03  1.3009E-03  -97.058
    81    4   0.0462  -0.0038   3.9210  0.02087  -1.2357E-02  1.0944E-02  1.6507E-02  138.470
    82    4   0.0462  -0.0038   3.9418  0.02087  -2.4101E-02  2.2688E-02  3.3100E-02  136.729



                                        - - - POWER BUDGET - - -

                                           INPUT POWER   = 1.5615E-02 WATTS
                                           RADIATED POWER= 1.5030E-02 WATTS
                                           STRUCTURE LOSS= 5.8463E-04 WATTS
                                           NETWORK LOSS  = 0.0000E+00 WATTS
                                           EFFICIENCY    =  96.26 PERCENT



                                                - - - RADIATION PATTERNS - - -

  - - ANGLES - -           - POWER GAINS -       - - - POLARIZATION - - -    - - - E(THETA) - - -    - - - E(PHI) - - -
  THETA     PHI        VERT.   HOR.    TOTAL      AXIAL     TILT   SENSE     MAGNITUDE    PHASE      MAGNITUDE    PHASE 
 DEGREES  DEGREES       DB      DB      DB        RATIO     DEG.              VOLTS/M    DEGREES      VOLTS/M    DEGREES
    0.00     0.00     -28.04   -4.06   -4.04    0.04803    87.64  RIGHT     3.83609E-02    25.33    6.06207E-01   -24.16
    5.00     0.00     -26.57   -3.14   -3.12    0.04772    87.28  RIGHT     4.53929E-02    10.34    6.74147E-01   -34.92
   10.00     0.00     -25.16   -1.06   -1.04    0.03703    87.12  RIGHT     5.34354E-02   -13.41    8.56286E-01   -49.91
   15.00     0.00     -24.09    0.66    0.68    0.02084    86.91  RIGHT     6.04266E-02   -44.07    1.04414E+00   -65.24
   20.00     0.00     -23.40    0.06    0.08    0.00419    86.17  LEFT      6.54085E-02   -85.79    9.74727E-01   -82.19
   25.00     0.00     -22.05   -7.29   -7.14    0.02714    79.76  LEFT      7.64182E-02  -135.63    4.18171E-01  -126.81
   30.00     0.00     -21.86   -0.81   -0.78    0.07770    87.56  RIGHT     7.80943E-02   175.12    8.81346E-01   113.66
   35.00     0.00     -23.41    2.27    2.28    0.00589    87.04  RIGHT     6.53294E-02    95.64    1.25676E+00    89.11
   40.00     0.00     -20.13   -8.98   -8.66    0.14913    76.86  RIGHT     9.52897E-02    21.01    3.44194E-01   -13.56
   45.00     0.00     -23.10    3.79    3.79    0.02575    87.87  RIGHT     6.77230E-02   -56.26    1.49611E+00   -90.98
   50.00     0.00     -19.60   -9.30   -8.91    0.04710    73.20  RIGHT     1.01316E-01  -158.28    3.31645E-01  -167.97
   55.00     0.00     -22.91    4.80    4.81    0.01749    87.87  RIGHT     6.92324E-02   108.57    1.68154E+00    83.40
   60.00     0.00     -19.52   -4.24   -4.11    0.16634    87.44  RIGHT     1.02297E-01     4.70    5.93914E-01   -70.68
   65.00     0.00     -21.44    3.92    3.93    0.01046    86.97  LEFT      8.19377E-02  -115.39    1.51977E+00  -104.17
   70.00     0.00     -20.86    4.85    4.86    0.04340    88.38  RIGHT     8.76509E-02   141.07    1.69135E+00    84.12
   75.00     0.00     -21.30  -13.10  -12.49    0.05777    68.96  LEFT      8.33117E-02    18.34    2.14216E-01    28.16
   80.00     0.00     -19.83    5.93    5.94    0.00843    87.09  RIGHT     9.86519E-02   -92.78    1.91502E+00  -102.22
   85.00     0.00     -18.89    5.67    5.69    0.03392    87.23  RIGHT     1.09905E-01   115.22    1.85943E+00    80.11
   90.00     0.00    -999.99 -190.64 -190.62    0.01913    85.94  RIGHT     2.08938E-11   -86.49    2.84251E-10  -101.65
    0.00    10.00     -17.24   -4.26   -4.04    0.04803    77.64  RIGHT     1.32947E-01   -11.69    5.92691E-01   -24.65
    5.00    10.00     -16.00   -3.32   -3.09    0.06977    77.50  RIGHT     1.53331E-01   -17.13    6.60039E-01   -35.49
   10.00    10.00     -14.09   -1.24   -1.02    0.07873    77.94  RIGHT     1.91044E-01   -29.27    8.38845E-01   -50.46
   15.00    10.00     -12.82    0.48    0.68    0.07702    78.57  RIGHT     2.21177E-01   -44.05    1.02234E+00   -65.79
   20.00    10.00     -13.77   -0.13    0.05    0.05954    78.73  RIGHT     1.98186E-01   -65.49    9.52755E-01   -82.80
   25.00    10.00     -17.48   -7.54   -7.12    0.04200    72.49  RIGHT     1.29278E-01  -119.65    4.06206E-01  -127.99
   30.00    10.00     -14.67   -0.91   -0.73    0.15650    82.44  RIGHT     1.78796E-01   163.70    8.71657E-01   112.80
   35.00    10.00     -14.33    2.14    2.24    0.07153    82.48  RIGHT     1.85758E-01   117.35    1.23788E+00    88.35
   40.00    10.00     -16.69   -9.05   -8.36    0.24968    71.59  RIGHT     1.41572E-01    26.44    3.41416E-01   -15.19
   45.00    10.00     -14.72    3.69    3.76    0.08283    85.03  RIGHT     1.77769E-01   -47.73    1.48041E+00   -91.75
   50.00    10.00     -16.71   -9.40   -8.66    0.13439    67.68  RIGHT     1.41350E-01  -148.24    3.27684E-01  -169.52
   55.00    10.00     -16.15    4.72    4.76    0.05806    86.03  RIGHT     1.50696E-01   122.83    1.66665E+00    82.65
   60.00    10.00     -16.47   -4.26   -4.00    0.24137    87.59  RIGHT     1.45210E-01     9.16    5.92674E-01   -71.51
   65.00    10.00     -17.87    3.85    3.88    0.01001    85.34  RIGHT     1.23705E-01   -97.86    1.50673E+00  -104.91
   70.00    10.00     -17.77    4.80    4.82    0.06708    88.16  RIGHT     1.25057E-01   147.94    1.68105E+00    83.42
   75.00    10.00     -18.88  -13.19  -12.15    0.00303    62.55  RIGHT     1.10109E-01    27.36    2.11944E-01    26.94
   80.00    10.00     -18.43    5.87    5.89    0.01226    86.58  RIGHT     1.15937E-01   -91.26    1.90228E+00  -102.91
   85.00    10.00     -18.85    5.62    5.64    0.03839    87.38  RIGHT     1.10473E-01   119.49    1.84831E+00    79.43
   90.00    10.00    -999.99 -190.69 -190.67    0.01772    85.72  RIGHT     2.17395E-11   -88.95    2.82458E-10  -102.34
    0.00    20.00     -12.39   -4.73   -4.04    0.04803    67.64  RIGHT     2.32373E-01   -17.39    5.61214E-01   -25.18
    5.00    20.00     -11.32   -3.78   -3.07    0.09089    67.71  RIGHT     2.62829E-01   -21.72    6.26394E-01   -36.36
   10.00    20.00      -9.46   -1.67   -1.01    0.11923    68.66  RIGHT     3.25626E-01   -31.89    7.97901E-01   -51.53
   15.00    20.00      -8.22    0.06    0.66    0.13292    70.08  RIGHT     3.75519E-01   -44.14    9.74181E-01   -67.04
   20.00    20.00      -9.35   -0.55   -0.01    0.12455    71.16  RIGHT     3.29794E-01   -61.76    9.08720E-01   -84.25
   25.00    20.00     -14.46   -7.98   -7.10    0.11196    65.24  RIGHT     1.83080E-01  -113.58    3.86186E-01  -130.17
   30.00    20.00     -10.85   -1.16   -0.72    0.23742    77.22  RIGHT     2.77509E-01   160.36    8.46310E-01   110.97
   35.00    20.00      -9.99    1.87    2.14    0.14018    77.94  RIGHT     3.06439E-01   121.55    1.19950E+00    86.57
   40.00    20.00     -14.31   -9.23   -8.06    0.34539    65.98  RIGHT     1.86237E-01    28.70    3.34242E-01   -17.83
   45.00    20.00     -10.64    3.49    3.66    0.14236    82.28  RIGHT     2.84288E-01   -46.01    1.44664E+00   -93.52
   50.00    20.00     -14.53   -9.60   -8.39    0.21651    62.16  RIGHT     1.81722E-01  -143.27    3.20496E-01  -172.09
   55.00    20.00     -12.42    4.56    4.65    0.10030    84.30  RIGHT     2.31462E-01   126.63    1.63557E+00    80.93
   60.00    20.00     -14.29   -4.35   -3.93    0.31676    88.02  RIGHT     1.86768E-01    11.12    5.86179E-01   -73.29
   65.00    20.00     -15.16    3.70    3.76    0.03195    83.75  RIGHT     1.68942E-01   -90.13    1.48161E+00  -106.60
   70.00    20.00     -15.53    4.68    4.72    0.09122    88.01  RIGHT     1.61834E-01   151.14    1.65810E+00    81.79
   75.00    20.00     -16.96  -13.34  -11.77    0.05971    56.69  RIGHT     1.37319E-01    32.22    2.08302E-01    24.78
   80.00    20.00     -17.26    5.75    5.78    0.01691    86.08  RIGHT     1.32585E-01   -90.61    1.87666E+00  -104.53
   85.00    20.00     -18.77    5.51    5.53    0.04327    87.53  RIGHT     1.11494E-01   123.03    1.82496E+00    77.83
   90.00    20.00    -999.99 -190.81 -190.78    0.01717    85.47  RIGHT     2.25954E-11   -91.63    2.78818E-10  -103.94
    0.00    30.00      -9.46   -5.52   -4.04    0.04803    57.64  RIGHT     3.25665E-01   -19.71    5.12738E-01   -25.79
    5.00    30.00      -8.46   -4.53   -3.05    0.11049    57.88  RIGHT     3.65303E-01   -23.68    5.74374E-01   -37.63
   10.00    30.00      -6.63   -2.39   -1.00    0.15773    59.22  RIGHT     4.51010E-01   -33.05    7.35076E-01   -53.25
   15.00    30.00      -5.41   -0.61    0.63    0.18828    61.33  RIGHT     5.18773E-01   -44.28    9.01850E-01   -69.16
   20.00    30.00      -6.61   -1.18   -0.08    0.19164    63.34  RIGHT     4.51998E-01   -60.33    8.44880E-01   -86.72
   25.00    30.00     -12.36   -8.60   -7.08    0.18351    57.93  RIGHT     2.33097E-01  -110.68    3.59401E-01  -133.57
   30.00    30.00      -8.36   -1.57   -0.75    0.32266    71.81  RIGHT     3.69704E-01   158.58    8.07231E-01   108.06
   35.00    30.00      -7.27    1.46    2.00    0.21437    73.43  RIGHT     4.18852E-01   123.09    1.14440E+00    83.67
   40.00    30.00     -12.58   -9.52   -7.77    0.43629    59.92  RIGHT     2.27448E-01    29.63    3.23535E-01   -21.54
   45.00    30.00      -8.04    3.19    3.51    0.20617    79.73  RIGHT     3.83266E-01   -45.52    1.39759E+00   -96.36
   50.00    30.00     -12.88   -9.86   -8.10    0.29379    56.70  RIGHT     2.19616E-01  -140.69    3.10862E-01  -175.71
   55.00    30.00      -9.98    4.32    4.48    0.14518    82.76  RIGHT     3.06825E-01   128.07    1.59103E+00    78.18
   60.00    30.00     -12.66   -4.52   -3.90    0.39143    89.04  RIGHT     2.25367E-01    11.90    5.75237E-01   -76.02
   65.00    30.00     -13.17    3.49    3.59    0.05625    82.28  RIGHT     2.12373E-01   -86.30    1.44662E+00  -109.27
   70.00    30.00     -13.86    4.50    4.56    0.11561    88.00  RIGHT     1.96209E-01   152.64    1.62465E+00    79.21
   75.00    30.00     -15.46  -13.54  -11.38    0.11269    51.47  RIGHT     1.63098E-01    34.86    2.03650E-01    21.68
   80.00    30.00     -16.31    5.58    5.61    0.02268    85.59  RIGHT     1.48036E-01   -90.59    1.84051E+00  -107.07
   85.00    30.00     -18.68    5.35    5.37    0.04841    87.70  RIGHT     1.12696E-01   125.74    1.79155E+00    75.32
   90.00    30.00    -999.99 -190.97 -190.94    0.01770    85.21  RIGHT     2.34375E-11   -94.44    2.73664E-10  -106.45
    0.00    40.00      -7.47   -6.67   -4.04    0.04803    47.64  RIGHT     4.09361E-01   -21.03    4.48755E-01   -26.56
    5.00    40.00      -6.51   -5.63   -3.04    0.12799    47.99  RIGHT     4.57179E-01   -24.83    5.05807E-01   -39.49
   10.00    40.00      -4.70   -3.42   -1.00    0.19327    49.55  RIGHT     5.63207E-01   -33.78    6.52995E-01   -55.91
   15.00    40.00      -3.50   -1.56    0.59    0.24233    52.17  RIGHT     6.46590E-01   -44.46    8.08934E-01   -72.45
   20.00    40.00      -4.74   -2.04   -0.17    0.26121    55.10  RIGHT     5.60646E-01   -59.68    7.64932E-01   -90.54
   25.00    40.00     -10.86   -9.40   -7.06    0.25736    50.49  RIGHT     2.77029E-01  -109.20    3.27828E-01  -138.51
   30.00    40.00      -6.60   -2.13   -0.80    0.41448    66.08  RIGHT     4.52328E-01   157.34    7.57561E-01   103.86
   35.00    40.00      -5.41    0.93    1.84    0.29683    69.01  RIGHT     5.19042E-01   123.70    1.07701E+00    79.47
   40.00    40.00     -11.29   -9.87   -7.51    0.52211    53.22  RIGHT     2.63794E-01    29.83    3.10533E-01   -26.42
   45.00    40.00      -6.24    2.81    3.32    0.27584    77.56  RIGHT     4.71599E-01   -45.54    1.33769E+00  -100.37
   50.00    40.00     -11.64  -10.18   -7.84    0.36709    51.34  RIGHT     2.53274E-01  -139.42    2.99863E-01   179.56
   55.00    40.00      -8.25    4.02    4.27    0.19323    81.57  RIGHT     3.74113E-01   128.54    1.53724E+00    74.37
   60.00    40.00     -11.42   -4.73   -3.89    0.46251   -88.99  RIGHT     2.59700E-01    11.98    5.61114E-01   -79.73
   65.00    40.00     -11.70    3.24    3.38    0.08348    81.00  RIGHT     2.51472E-01   -84.38    1.40507E+00  -112.93
   70.00    40.00     -12.60    4.28    4.37    0.13971    88.19  RIGHT     2.26889E-01   153.19    1.58406E+00    75.68
   75.00    40.00     -14.31  -13.76  -11.02    0.16295    46.93  RIGHT     1.86211E-01    36.18    1.98475E-01    17.63
   80.00    40.00     -15.54    5.38    5.41    0.02982    85.15  RIGHT     1.61782E-01   -91.05    1.79735E+00  -110.54
   85.00    40.00     -18.59    5.15    5.17    0.05360    87.90  RIGHT     1.13806E-01   127.58    1.75141E+00    71.89
   90.00    40.00    -999.99 -191.17 -191.13    0.01955    84.94  RIGHT     2.42376E-11   -97.33    2.67503E-10  -109.89
    0.00    50.00      -6.08   -8.32   -4.04    0.04803    37.64  RIGHT     4.80764E-01   -21.93    3.71246E-01   -27.61
    5.00    50.00      -5.14   -7.18   -3.03    0.14286    38.04  RIGHT     5.35545E-01   -25.64    4.23254E-01   -42.36
   10.00    50.00      -3.34   -4.82   -1.01    0.22462    39.62  RIGHT     6.58759E-01   -34.33    5.55529E-01   -60.05
   15.00    50.00      -2.15   -2.80    0.54    0.29354    42.46  RIGHT     7.55085E-01   -44.68    7.00864E-01   -77.50
   20.00    50.00      -3.42   -3.13   -0.27    0.33285    46.20  RIGHT     6.52314E-01   -59.40    6.74470E-01   -96.24
   25.00    50.00      -9.80  -10.34   -7.05    0.33404    42.77  RIGHT     3.13259E-01  -108.48    2.94330E-01  -145.50
   30.00    50.00      -5.35   -2.79   -0.87    0.51521    59.78  RIGHT     5.22781E-01   156.31    7.01838E-01    98.11
   35.00    50.00      -4.10    0.32    1.66    0.39061    64.79  RIGHT     6.03804E-01   123.86    1.00361E+00    73.76
   40.00    50.00     -10.34  -10.26   -7.29    0.60215    45.57  RIGHT     2.94097E-01    29.56    2.96830E-01   -32.55
   45.00    50.00      -4.96    2.38    3.12    0.35223    76.05  RIGHT     5.46554E-01   -45.83    1.27296E+00  -105.64
   50.00    50.00     -10.73  -10.50   -7.60    0.43773    46.10  RIGHT     2.81390E-01  -138.99    2.88830E-01   173.71
   55.00    50.00      -7.02    3.69    4.04    0.24401    80.93  RIGHT     4.31142E-01   128.50    1.47976E+00    69.46
   60.00    50.00     -10.51   -4.98   -3.91    0.52402   -85.62  RIGHT     2.88648E-01    11.61    5.45473E-01   -84.41
   65.00    50.00     -10.63    2.97    3.15    0.11365    80.05  RIGHT     2.84559E-01   -83.53    1.36129E+00  -117.60
   70.00    50.00     -11.66    4.04    4.16    0.16238    88.65  RIGHT     2.52812E-01   153.12    1.54064E+00    71.19
   75.00    50.00     -13.45  -13.99  -10.70    0.21166    43.06  RIGHT     2.05723E-01    36.63    1.93357E-01    12.68
   80.00    50.00     -14.93    5.16    5.20    0.03840    84.79  RIGHT     1.73372E-01   -91.89    1.75173E+00  -114.92
   85.00    50.00     -18.53    4.94    4.96    0.05856    88.13  RIGHT     1.14577E-01   128.52    1.70879E+00    67.56
   90.00    50.00    -999.99 -191.38 -191.34    0.02293    84.69  RIGHT     2.49647E-11  -100.22    2.60984E-10  -114.21
    0.00    60.00      -5.10  -10.69   -4.04    0.04803    27.64  RIGHT     5.37648E-01   -22.61    2.82654E-01   -29.29
    5.00    60.00      -4.18   -9.34   -3.02    0.15461    28.02  RIGHT     5.97974E-01   -26.28    3.30290E-01   -47.18
   10.00    60.00      -2.39   -6.68   -1.02    0.25040    29.40  RIGHT     7.34740E-01   -34.80    4.48534E-01   -66.79
   15.00    60.00      -1.22   -4.36    0.50    0.33929    32.06  RIGHT     8.40956E-01   -44.92    5.86003E-01   -85.37
   20.00    60.00      -2.52   -4.42   -0.35    0.40449    36.29  RIGHT     7.24162E-01   -59.33    5.81908E-01  -104.72
   25.00    60.00      -9.07  -11.32   -7.04    0.41366    34.52  RIGHT     3.40554E-01  -108.24    2.62922E-01  -155.14
   30.00    60.00      -4.46   -3.51   -0.95    0.62672    52.28  RIGHT     5.78868E-01   155.38    6.46179E-01    90.50
   35.00    60.00      -3.19   -0.32    1.49    0.49907    60.99  RIGHT     6.70481E-01   123.74    9.32427E-01    66.29
   40.00    60.00      -9.68  -10.64   -7.12    0.67475    36.48  RIGHT     3.17395E-01    28.96    2.84285E-01   -39.94
   45.00    60.00      -4.07    1.95    2.92    0.43425    75.72  RIGHT     6.05807E-01   -46.30    1.21085E+00  -112.23
   50.00    60.00     -10.09  -10.79   -7.42    0.50751    41.04  RIGHT     3.02956E-01  -139.13    2.79232E-01   166.80
   55.00    60.00      -6.16    3.36    3.82    0.29535    81.09  RIGHT     4.76092E-01   128.14    1.42523E+00    63.46
   60.00    60.00      -9.85   -5.22   -3.94    0.56594   -80.61  RIGHT     3.11275E-01    10.90    5.30264E-01   -90.04
   65.00    60.00      -9.88    2.70    2.93    0.14577    79.54  RIGHT     3.10379E-01   -83.38    1.32027E+00  -123.22
   70.00    60.00     -10.99    3.80    3.95    0.18184    89.40  RIGHT     2.73108E-01   152.63    1.49943E+00    65.81
   75.00    60.00     -12.83  -14.19  -10.45    0.26004    39.88  RIGHT     2.20903E-01    36.47    1.88917E-01     6.92
   80.00    60.00     -14.49    4.94    4.99    0.04821    84.56  RIGHT     1.82423E-01   -93.04    1.70884E+00  -120.15
   85.00    60.00     -18.51    4.73    4.75    0.06291    88.40  RIGHT     1.14825E-01   128.58    1.66856E+00    62.40
   90.00    60.00    -999.99 -191.59 -191.54    0.02790    84.49  RIGHT     2.55871E-11  -103.08    2.54850E-10  -119.37
    0.00    70.00      -4.47  -14.33   -4.04    0.04803    17.64  RIGHT     5.78257E-01   -23.17    1.85949E-01   -32.64
    5.00    70.00      -3.56  -12.38   -3.02    0.16284    17.95  RIGHT     6.42546E-01   -26.83    2.32696E-01   -56.53
   10.00    70.00      -1.77   -9.03   -1.03    0.26913    18.91  RIGHT     7.88828E-01   -35.22    3.42139E-01   -78.65
   15.00    70.00      -0.61   -6.12    0.46    0.37584    20.90  RIGHT     9.01583E-01   -45.20    4.78150E-01   -97.91
   20.00    70.00      -1.94   -5.73   -0.42    0.47098    24.90  RIGHT     7.73972E-01   -59.40    5.00009E-01  -117.15
   25.00    70.00      -8.64  -12.15   -7.04    0.49524    25.34  RIGHT     3.58018E-01  -108.34    2.38833E-01  -167.82
   30.00    70.00      -3.88   -4.18   -1.02    0.74781    41.56  RIGHT     6.18839E-01   154.49    5.98249E-01    80.80
   35.00    70.00      -2.60   -0.89    1.35    0.62567    58.22  RIGHT     7.16987E-01   123.45    8.73298E-01    56.98
   40.00    70.00      -9.27  -10.93   -7.01    0.73628    25.16  RIGHT     3.32956E-01    28.09    2.74816E-01   -48.45
   45.00    70.00      -3.49    1.57    2.75    0.51595    77.43  RIGHT     6.47506E-01   -46.91    1.15960E+00  -120.10
   50.00    70.00      -9.69  -11.01   -7.29    0.57870    36.19  RIGHT     3.17231E-01  -139.70    2.72481E-01   159.01
   55.00    70.00      -5.60    3.09    3.64    0.34224    82.30  RIGHT     5.07525E-01   127.55    1.38065E+00    56.46
   60.00    70.00      -9.43   -5.44   -3.98    0.57752   -74.65  RIGHT     3.26848E-01     9.93    5.17517E-01   -96.49
   65.00    70.00      -9.40    2.48    2.75    0.17745    79.63  RIGHT     3.28003E-01   -83.72    1.28715E+00  -129.68
   70.00    70.00     -10.55    3.61    3.77    0.19575   -89.56  RIGHT     2.87098E-01   151.80    1.46556E+00    59.64
   75.00    70.00     -12.43  -14.34  -10.27    0.30917    37.43  RIGHT     2.31201E-01    35.83    1.85731E-01     0.52
   80.00    70.00     -14.20    4.76    4.82    0.05859    84.50  RIGHT     1.88634E-01   -94.45    1.67394E+00  -126.10
   85.00    70.00     -18.54    4.56    4.58    0.06622    88.71  RIGHT     1.14444E-01   127.78    1.63566E+00    56.53
   90.00    70.00    -999.99 -191.76 -191.71    0.03429    84.37  RIGHT     2.60751E-11  -105.86    2.49849E-10  -125.24
    0.00    80.00      -4.13  -21.06   -4.04    0.04803     7.64  RIGHT     6.01345E-01   -23.68    8.56837E-02   -43.75
    5.00    80.00      -3.22  -16.50   -3.02    0.16725     7.85  RIGHT     6.67895E-01   -27.33    1.44708E-01   -79.16
   10.00    80.00      -1.44  -11.50   -1.03    0.27956     8.21  RIGHT     8.19368E-01   -35.63    2.57592E-01  -100.63
   15.00    80.00      -0.30   -7.66    0.44    0.39876     9.05  RIGHT     9.35112E-01   -45.49    4.00733E-01  -117.35
   20.00    80.00      -1.65   -6.71   -0.47    0.52239    11.63  RIGHT     8.00205E-01   -59.56    4.46694E-01  -134.20
   25.00    80.00      -8.47  -12.57   -7.04    0.57501    14.46  RIGHT     3.65085E-01  -108.71    2.27582E-01   177.01
   30.00    80.00      -3.57   -4.65   -1.07    0.85404    18.86  RIGHT     6.41444E-01   153.63    5.66406E-01    69.17
   35.00    80.00      -2.31   -1.27    1.25    0.77126    59.00  RIGHT     7.41861E-01   123.03    8.36282E-01    46.09
   40.00    80.00      -9.08  -11.09   -6.96    0.77936    10.75  RIGHT     3.40301E-01    27.00    2.70029E-01   -57.73
   45.00    80.00      -3.19    1.32    2.64    0.58104    82.28  RIGHT     6.70336E-01   -47.60    1.12700E+00  -128.97
   50.00    80.00      -9.51  -11.10   -7.22    0.65406    31.59  RIGHT     3.23737E-01  -140.63    2.69650E-01   150.69
   55.00    80.00      -5.32    2.91    3.52    0.37661    84.66  RIGHT     5.24430E-01   126.80    1.35236E+00    48.72
   60.00    80.00      -9.22   -5.58   -4.02    0.55622   -69.32  RIGHT     3.34865E-01     8.74    5.09045E-01  -103.56
   65.00    80.00      -9.17    2.34    2.63    0.20484    80.36  RIGHT     3.36806E-01   -84.44    1.26639E+00  -136.76
   70.00    80.00     -10.34    3.47    3.65    0.20183   -88.35  RIGHT     2.94315E-01   150.71    1.44357E+00    52.90
   75.00    80.00     -12.25  -14.41  -10.18    0.35990    35.78  RIGHT     2.36253E-01    34.80    1.84231E-01    -6.27
   80.00    80.00     -14.06    4.64    4.70    0.06848    84.64  RIGHT     1.91802E-01   -96.09    1.65156E+00  -132.58
   85.00    80.00     -18.62    4.45    4.47    0.06815    89.02  RIGHT     1.13414E-01   126.14    1.61435E+00    50.15
   90.00    80.00    -999.99 -191.87 -191.82    0.04159    84.37  RIGHT     2.64026E-11  -108.52    2.46629E-10  -131.62
    0.00    90.00      -4.06  -28.04   -4.04    0.04803    -2.36  RIGHT     6.06207E-01   -24.16    3.83609E-02  -154.67
    5.00    90.00      -3.15  -18.42   -3.02    0.16770    -2.28  RIGHT     6.73242E-01   -27.81    1.16032E-01  -130.77
   10.00    90.00      -1.38  -12.30   -1.04    0.28091    -2.57  RIGHT     8.25425E-01   -36.02    2.34783E-01  -134.37
   15.00    90.00      -0.25   -8.03    0.42    0.40440    -3.18  RIGHT     9.40515E-01   -45.79    3.83818E-01  -142.32
   20.00    90.00      -1.63   -6.86   -0.49    0.54507    -3.30  RIGHT     8.02044E-01   -59.78    4.39386E-01  -154.02
   25.00    90.00      -8.55  -12.39   -7.05    0.64254     0.72  RIGHT     3.61529E-01  -109.31    2.32335E-01   161.35
   30.00    90.00      -3.51   -4.79   -1.09    0.83100   -18.43  RIGHT     6.45969E-01   152.79    5.57379E-01    56.41
   35.00    90.00      -2.28   -1.35    1.22    0.89376    81.55  RIGHT     7.44313E-01   122.52    8.28725E-01    34.39
   40.00    90.00      -9.10  -11.06   -6.96    0.79367    -6.31  RIGHT     3.39217E-01    25.69    2.70788E-01   -67.23
   45.00    90.00      -3.15    1.26    2.60    0.60222    90.00  RIGHT     6.73567E-01   -48.37    1.11847E+00  -138.36
   50.00    90.00      -9.55  -11.05   -7.22    0.73701    27.37  RIGHT     3.22274E-01  -141.89    2.71192E-01   142.31
   55.00    90.00      -5.29    2.86    3.48    0.38961    87.84  RIGHT     5.26253E-01   125.92    1.34459E+00    40.60
   60.00    90.00      -9.21   -5.63   -4.05    0.51108   -65.90  RIGHT     3.35074E-01     7.36    5.06088E-01  -110.95
   65.00    90.00      -9.17    2.30    2.60    0.22334    81.68  RIGHT     3.36480E-01   -85.47    1.26091E+00  -144.12
   70.00    90.00     -10.33    3.43    3.61    0.19889   -87.15  RIGHT     2.94526E-01   149.39    1.43648E+00    45.88
   75.00    90.00     -12.26  -14.39  -10.18    0.41254    35.10  RIGHT     2.35891E-01    33.44    1.84612E-01   -13.14
   80.00    90.00     -14.06    4.61    4.67    0.07654    84.97  RIGHT     1.91832E-01   -97.92    1.64469E+00  -139.31
   85.00    90.00     -18.74    4.41    4.43    0.06852    89.32  RIGHT     1.11808E-01   123.68    1.60746E+00    43.51
   90.00    90.00    -999.99 -191.91 -191.86    0.04900    84.50  RIGHT     2.65500E-11  -111.01    2.45614E-10  -138.24
    0.00   100.00      -4.26  -17.24   -4.04    0.04803   -12.36  RIGHT     5.92691E-01   -24.65    1.32947E-01   168.31
    5.00   100.00      -3.34  -14.58   -3.03    0.16419   -12.40  RIGHT     6.58422E-01   -28.29    1.80533E-01  -169.47
   10.00   100.00      -1.58  -10.44   -1.05    0.27309   -13.31  RIGHT     8.06811E-01   -36.41    2.90924E-01  -163.62
   15.00   100.00      -0.46   -6.92    0.42    0.39171   -15.32  RIGHT     9.17622E-01   -46.10    4.36154E-01  -164.95
   20.00   100.00      -1.88   -6.07   -0.48    0.53042   -18.43  RIGHT     7.79423E-01   -60.05    4.80789E-01  -172.17
   25.00   100.00      -8.90  -11.70   -7.06    0.67653   -16.48  RIGHT     3.47469E-01  -110.16    2.51583E-01   147.53
   30.00   100.00      -3.70   -4.55   -1.09    0.71481   -36.20  RIGHT     6.32264E-01   151.95    5.73164E-01    43.89
   35.00   100.00      -2.52   -1.10    1.26    0.79787   -68.25  RIGHT     7.24254E-01   121.94    8.52056E-01    23.03
   40.00   100.00      -9.35  -10.87   -7.03    0.77542   -23.00  RIGHT     3.29776E-01    24.15    2.76916E-01   -76.33
   45.00   100.00      -3.36    1.39    2.64    0.56649   -82.85  RIGHT     6.57087E-01   -49.18    1.13531E+00  -147.61
   50.00   100.00      -9.81  -10.87   -7.29    0.83190    23.95  RIGHT     3.12925E-01  -143.47    2.76807E-01   134.34
   55.00   100.00      -5.51    2.95    3.53    0.37719   -88.97  RIGHT     5.12930E-01   124.93    1.35836E+00    32.60
   60.00   100.00      -9.41   -5.58   -4.07    0.45469   -64.55  RIGHT     3.27487E-01     5.79    5.09022E-01  -118.31
   65.00   100.00      -9.42    2.37    2.65    0.22936    83.34  RIGHT     3.27037E-01   -86.81    1.27131E+00  -151.38
   70.00   100.00     -10.53    3.48    3.65    0.18753   -86.17  RIGHT     2.87735E-01   147.85    1.44512E+00    38.92
   75.00   100.00     -12.47  -14.29  -10.28    0.46627    35.67  RIGHT     2.30146E-01    31.76    1.86785E-01   -19.76
   80.00   100.00     -14.20    4.66    4.71    0.08163    85.44  RIGHT     1.88744E-01   -99.94    1.65405E+00  -145.98
   85.00   100.00     -18.90    4.45    4.47    0.06751    89.56  RIGHT     1.09792E-01   120.42    1.61572E+00    36.93
   90.00   100.00    -999.99 -191.86 -191.81    0.05563    84.75  RIGHT     2.65049E-11  -113.29    2.46910E-10  -144.80
    0.00   110.00      -4.73  -12.39   -4.04    0.04803   -22.36  RIGHT     5.61214E-01   -25.18    2.32373E-01   162.61
    5.00   110.00      -3.81  -10.91   -3.04    0.15689   -22.49  RIGHT     6.23886E-01   -28.80    2.75644E-01   175.67
   10.00   110.00      -2.05   -7.92   -1.05    0.25677   -23.90  RIGHT     7.64088E-01   -36.81    3.88875E-01   179.77
   15.00   110.00      -0.95   -5.18    0.44    0.36282   -26.97  RIGHT     8.67127E-01   -46.42    5.32870E-01   179.53
   20.00   110.00      -2.41   -4.81   -0.44    0.48370   -32.12  RIGHT     7.33023E-01   -60.36    5.55916E-01   174.14
   25.00   110.00      -9.52  -10.76   -7.09    0.65701   -34.52  RIGHT     3.23369E-01  -111.31    2.80301E-01   136.70
   30.00   110.00      -4.14   -4.01   -1.06    0.59736   -45.91  RIGHT     6.00748E-01   151.11    6.09868E-01    32.83
   35.00   110.00      -3.03   -0.62    1.35    0.64982   -65.94  RIGHT     6.82295E-01   121.30    9.01032E-01    12.99
   40.00   110.00      -9.82  -10.55   -7.16    0.73298   -36.95  RIGHT     3.12335E-01    22.34    2.87261E-01   -84.53
   45.00   110.00      -3.85    1.68    2.75    0.49441   -78.94  RIGHT     6.21408E-01   -50.04    1.17421E+00  -156.09
   50.00   110.00     -10.29  -10.60   -7.43    0.94351    25.71  RIGHT     2.96063E-01  -145.43    2.85527E-01   127.17
   55.00   110.00      -6.00    3.15    3.65    0.34346   -86.58  RIGHT     4.84884E-01   123.84    1.39112E+00    25.14
   60.00   110.00      -9.82   -5.44   -4.09    0.39635   -64.86  RIGHT     3.12386E-01     4.02    5.17265E-01  -125.26
   65.00   110.00      -9.92    2.54    2.78    0.22194    85.03  RIGHT     3.08816E-01   -88.47    1.29576E+00  -158.17
   70.00   110.00     -10.95    3.62    3.77    0.17000   -85.57  RIGHT     2.74196E-01   146.08    1.46789E+00    32.34
   75.00   110.00     -12.89  -14.12  -10.45    0.51768    37.97  RIGHT     2.19254E-01    29.72    1.90398E-01   -25.84
   80.00   110.00     -14.48    4.78    4.83    0.08316    85.98  RIGHT     1.82674E-01  -102.14    1.67798E+00  -152.28
   85.00   110.00     -19.08    4.57    4.59    0.06552    89.72  RIGHT     1.07609E-01   116.39    1.63764E+00    30.70
   90.00   110.00    -999.99 -191.75 -191.70    0.06075    85.11  RIGHT     2.62634E-11  -115.33    2.50286E-10  -151.00
    0.00   120.00      -5.52   -9.46   -4.04    0.04803   -32.36  RIGHT     5.12738E-01   -25.79    3.25665E-01   160.29
    5.00   120.00      -4.59   -8.30   -3.05    0.14609   -32.54  RIGHT     5.70689E-01   -29.37    3.71939E-01   168.86
   10.00   120.00      -2.83   -5.79   -1.05    0.23317   -34.26  RIGHT     6.98559E-01   -37.23    4.96709E-01   170.69
   15.00   120.00      -1.76   -3.51    0.46    0.32186   -37.89  RIGHT     7.90565E-01   -46.74    6.45723E-01   169.79
   20.00   120.00      -3.27   -3.51   -0.38    0.41819   -43.86  RIGHT     6.64257E-01   -60.71    6.45876E-01   164.71
   25.00   120.00     -10.46   -9.81   -7.11    0.59227   -49.54  RIGHT     2.90039E-01  -112.85    3.12914E-01   128.72
   30.00   120.00      -4.87   -3.33   -1.02    0.49164   -53.37  RIGHT     5.52391E-01   150.27    6.59822E-01    23.82
   35.00   120.00      -3.87   -0.01    1.48    0.51915   -68.23  RIGHT     6.19732E-01   120.59    9.66233E-01     4.73
   40.00   120.00     -10.54  -10.17   -7.34    0.67647   -48.29  RIGHT     2.87542E-01    20.16    3.00059E-01   -91.56
   45.00   120.00      -4.63    2.07    2.91    0.41140   -77.90  RIGHT     5.67645E-01   -50.93    1.22840E+00  -163.42
   50.00   120.00     -11.01  -10.29   -7.62    0.91818   -83.49  RIGHT     2.72358E-01  -147.88    2.95976E-01   121.02
   55.00   120.00      -6.79    3.44    3.83    0.29711   -85.30  RIGHT     4.43013E-01   122.62    1.43752E+00    18.56
   60.00   120.00     -10.46   -5.24   -4.10    0.34134   -66.40  RIGHT     2.90320E-01     1.99    5.29419E-01  -131.53
   65.00   120.00     -10.69    2.77    2.96    0.20302    86.44  RIGHT     2.82481E-01   -90.54    1.33043E+00  -164.23
   70.00   120.00     -11.60    3.81    3.94    0.14924   -85.41  RIGHT     2.54404E-01   144.03    1.50120E+00    26.43
   75.00   120.00     -13.54  -13.92  -10.71    0.55811    42.60  RIGHT     2.03657E-01    27.25    1.94914E-01   -31.18
   80.00   120.00     -14.91    4.96    5.00    0.08121    86.51  RIGHT     1.73870E-01  -104.54    1.71278E+00  -157.95
   85.00   120.00     -19.24    4.74    4.76    0.06310    89.78  RIGHT     1.05563E-01   111.67    1.66983E+00    25.08
   90.00   120.00    -999.99 -191.58 -191.53    0.06403    85.52  RIGHT     2.58306E-11  -117.07    2.55221E-10  -156.60
    0.00   130.00      -6.67   -7.47   -4.04    0.04803   -42.36  RIGHT     4.48755E-01   -26.56    4.09361E-01   158.97
    5.00   130.00      -5.73   -6.45   -3.06    0.13219   -42.54  RIGHT     5.00459E-01   -30.04    4.60526E-01   165.08
   10.00   130.00      -3.98   -4.16   -1.06    0.20374   -44.35  RIGHT     6.12219E-01   -37.70    5.99548E-01   165.34
   15.00   130.00      -2.93   -2.13    0.50    0.27312   -48.07  RIGHT     6.90270E-01   -47.08    7.56964E-01   163.62
   20.00   130.00      -4.52   -2.37   -0.30    0.34492   -53.96  RIGHT     5.75221E-01   -61.10    7.36426E-01   158.35
   25.00   130.00     -11.80   -8.96   -7.14    0.50547   -61.10  RIGHT     2.48637E-01  -115.04    3.44901E-01   123.03
   30.00   130.00      -5.93   -2.63   -0.97    0.39764   -59.97  RIGHT     4.88689E-01   149.39    7.14676E-01    16.86
   35.00   130.00      -5.09    0.61    1.64    0.40632   -71.71  RIGHT     5.38502E-01   119.79    1.03741E+00    -1.69
   40.00   130.00     -11.54   -9.79   -7.57    0.61141   -57.89  RIGHT     2.56330E-01    17.44    3.13365E-01   -97.31
   45.00   130.00      -5.78    2.50    3.10    0.33034   -78.64  RIGHT     4.97481E-01   -51.91    1.28965E+00  -169.41
   50.00   130.00     -12.01   -9.98   -7.87    0.78704   -83.74  RIGHT     2.42785E-01  -151.02    3.06665E-01   115.98
   55.00   130.00      -7.92    3.75    4.04    0.24598   -85.05  RIGHT     3.88667E-01   121.22    1.49076E+00    13.04
   60.00   130.00     -11.34   -5.01   -4.10    0.29217   -68.82  RIGHT     2.62093E-01    -0.40    5.43591E-01  -136.92
   65.00   130.00     -11.79    3.02    3.16    0.17608    87.43  RIGHT     2.49024E-01   -93.22    1.37038E+00  -169.35
   70.00   130.00     -12.51    4.04    4.13    0.12780   -85.65  RIGHT     2.29092E-01   141.57    1.54023E+00    21.36
   75.00   130.00     -14.42  -13.71  -11.04    0.57147    49.63  RIGHT     1.84004E-01    24.18    1.99714E-01   -35.64
   80.00   130.00     -15.49    5.16    5.20    0.07638    86.99  RIGHT     1.62685E-01  -107.18    1.75351E+00  -162.82
   85.00   130.00     -19.37    4.93    4.95    0.06075    89.76  RIGHT     1.03980E-01   106.37    1.70768E+00    20.23
   90.00   130.00    -999.99 -191.38 -191.34    0.06551    85.94  RIGHT     2.52195E-11  -118.47    2.61015E-10  -161.43
    0.00   140.00      -8.32   -6.08   -4.04    0.04803   -52.36  RIGHT     3.71246E-01   -27.61    4.80764E-01   158.07
    5.00   140.00      -7.35   -5.12   -3.08    0.11566   -52.48  RIGHT     4.15354E-01   -30.92    5.36888E-01   162.72
   10.00   140.00      -5.60   -2.94   -1.06    0.16992   -54.17  RIGHT     5.07705E-01   -38.27    6.89694E-01   161.97
   15.00   140.00      -4.61   -1.06    0.53    0.21997   -57.61  RIGHT     5.69296E-01   -47.45    8.56178E-01   159.62
   20.00   140.00      -6.30   -1.46   -0.22    0.26998   -62.92  RIGHT     4.68636E-01   -61.60    8.18146E-01   154.09
   25.00   140.00     -13.66   -8.28   -7.18    0.41145   -70.42  RIGHT     2.00721E-01  -118.42    3.72984E-01   119.06
   30.00   140.00      -7.42   -2.02   -0.92    0.31348   -66.17  RIGHT     4.11611E-01   148.43    7.67215E-01    11.68
   35.00   140.00      -6.82    1.16    1.80    0.30772   -75.64  RIGHT     4.41125E-01   118.77    1.10555E+00    -6.48
   40.00   140.00     -12.87   -9.47   -7.83    0.54004   -66.41  RIGHT     2.19949E-01    13.85    3.25380E-01  -101.84
   45.00   140.00      -7.39    2.89    3.28    0.25538   -80.40  RIGHT     4.13112E-01   -53.04    1.34992E+00  -174.08
   50.00   140.00     -13.32   -9.71   -8.14    0.65809   -86.89  RIGHT     2.08672E-01  -155.27    3.16215E-01   112.06
   55.00   140.00      -9.51    4.06    4.25    0.19482   -85.57  RIGHT     3.23609E-01   119.45    1.54386E+00     8.65
   60.00   140.00     -12.53   -4.79   -4.11    0.24968   -71.89  RIGHT     2.28762E-01    -3.36    5.57748E-01  -141.34
   65.00   140.00     -13.28    3.27    3.37    0.14450    87.98  RIGHT     2.09804E-01   -96.92    1.41046E+00  -173.48
   70.00   140.00     -13.73    4.26    4.33    0.10733   -86.21  RIGHT     1.99225E-01   138.49    1.57979E+00    17.22
   75.00   140.00     -15.57  -13.51  -11.41    0.54112    57.57  RIGHT     1.61169E-01    20.23    2.04195E-01   -39.16
   80.00   140.00     -16.22    5.37    5.40    0.06948    87.37  RIGHT     1.49565E-01  -110.12    1.79488E+00  -166.79
   85.00   140.00     -19.44    5.13    5.14    0.05880    89.67  RIGHT     1.03164E-01   100.67    1.74623E+00    16.26
   90.00   140.00    -999.99 -191.19 -191.15    0.06551    86.34  RIGHT     2.44509E-11  -119.48    2.66911E-10  -165.37
    0.00   150.00     -10.69   -5.10   -4.04    0.04803   -62.36  RIGHT     2.82654E-01   -29.29    5.37648E-01   157.39
    5.00   150.00      -9.66   -4.18   -3.10    0.09702   -62.36  RIGHT     3.18018E-01   -32.25    5.97970E-01   161.16
   10.00   150.00      -7.93   -2.07   -1.07    0.13297   -63.77  RIGHT     3.88214E-01   -39.06    7.62365E-01   159.79
   15.00   150.00      -7.02   -0.28    0.55    0.16457   -66.67  RIGHT     4.31333E-01   -47.92    9.36808E-01   157.03
   20.00   150.00      -8.89   -0.78   -0.15    0.19594   -71.13  RIGHT     3.47764E-01   -62.35    8.84827E-01   151.31
   25.00   150.00     -16.28   -7.78   -7.21    0.31639   -78.43  RIGHT     1.48492E-01  -124.38    3.94885E-01   116.43
   30.00   150.00      -9.52   -1.52   -0.88    0.23696   -72.16  RIGHT     3.23543E-01   147.24    8.11866E-01     7.97
   35.00   150.00      -9.33    1.60    1.94    0.21974   -79.77  RIGHT     3.30655E-01   117.28    1.16359E+00    -9.86
   40.00   150.00     -14.61   -9.22   -8.12    0.46323   -74.21  RIGHT     1.80052E-01     8.71    3.34614E-01  -105.22
   45.00   150.00      -9.69    3.22    3.44    0.18686   -82.73  RIGHT     3.17190E-01   -54.56    1.40237E+00  -177.51
   50.00   150.00     -15.01   -9.52   -8.44    0.53117    89.53  RIGHT     1.71847E-01  -161.42    3.23487E-01   109.21
   55.00   150.00     -11.75    4.32    4.42    0.14571   -86.63  RIGHT     2.50011E-01   116.91    1.59062E+00     5.37
   60.00   150.00     -14.06   -4.60   -4.13    0.21360   -75.41  RIGHT     1.91661E-01    -7.31    5.69996E-01  -144.76
   65.00   150.00     -15.28    3.49    3.55    0.11070    88.16  RIGHT     1.66697E-01  -102.58    1.44601E+00  -176.58
   70.00   150.00     -15.31    4.45    4.50    0.08858   -87.01  RIGHT     1.66039E-01   134.30    1.61507E+00    14.07
   75.00   150.00     -17.02  -13.36  -11.81    0.46557    64.12  RIGHT     1.36304E-01    14.82    2.07834E-01   -41.73
   80.00   150.00     -17.10    5.54    5.57    0.06125    87.65  RIGHT     1.35034E-01  -113.48    1.83194E+00  -169.82
   85.00   150.00     -19.43    5.30    5.31    0.05741    89.51  RIGHT     1.03340E-01    94.84    1.78081E+00    13.22
   90.00   150.00    -999.99 -191.02 -190.98    0.06443    86.69  RIGHT     2.35522E-11  -120.04    2.72201E-10  -168.38
    0.00   160.00     -14.33   -4.47   -4.04    0.04803   -72.36  RIGHT     1.85949E-01   -32.64    5.78257E-01   156.83
    5.00   160.00     -13.20   -3.57   -3.12    0.07679   -72.21  RIGHT     2.11584E-01   -34.78    6.41561E-01   160.09
   10.00   160.00     -11.50   -1.50   -1.08    0.09388   -73.19  RIGHT     2.57445E-01   -40.49    8.14333E-01   158.40
   15.00   160.00     -10.75    0.24    0.57    0.10816   -75.39  RIGHT     2.80594E-01   -48.72    9.94543E-01   155.43
   20.00   160.00     -13.01   -0.32   -0.09    0.12348   -78.88  RIGHT     2.16352E-01   -63.90    9.32368E-01   149.63
   25.00   160.00     -20.07   -7.48   -7.24    0.22229   -85.70  RIGHT     9.59830E-02  -137.40    4.09094E-01   114.88
   30.00   160.00     -12.58   -1.18   -0.88    0.16586   -78.03  RIGHT     2.27244E-01   145.44    8.44614E-01     5.48
   35.00   160.00     -13.24    1.92    2.05    0.13918   -83.97  RIGHT     2.10707E-01   114.30    1.20639E+00   -12.03
   40.00   160.00     -16.85   -9.09   -8.41    0.38145   -81.52  RIGHT     1.39011E-01     0.55    3.39956E-01  -107.54
   45.00   160.00     -13.15    3.46    3.56    0.12357   -85.38  RIGHT     2.12824E-01   -57.21    1.44174E+00  -179.80
   50.00   160.00     -17.10   -9.41   -8.72    0.40586    85.82  RIGHT     1.35058E-01  -171.11    3.27647E-01   107.40
   55.00   160.00     -15.07    4.51    4.56    0.09901   -88.01  RIGHT     1.70607E-01   112.28    1.62613E+00     3.16
   60.00   160.00     -16.05   -4.46   -4.17    0.18290   -79.25  RIGHT     1.52514E-01   -13.09    5.78776E-01  -147.18
   65.00   160.00     -17.94    3.65    3.68    0.07609    88.06  RIGHT     1.22681E-01  -112.49    1.47325E+00  -178.67
   70.00   160.00     -17.36    4.59    4.62    0.07162   -87.97  RIGHT     1.31167E-01   128.04    1.64211E+00    11.90
   75.00   160.00     -18.81  -13.26  -12.19    0.35815    68.44  RIGHT     1.11011E-01     6.91    2.10237E-01   -43.34
   80.00   160.00     -18.15    5.68    5.70    0.05227    87.85  RIGHT     1.19689E-01  -117.44    1.86059E+00  -171.90
   85.00   160.00     -19.32    5.43    5.44    0.05660    89.31  RIGHT     1.04606E-01    89.15    1.80753E+00    11.13
   90.00   160.00    -999.99 -190.89 -190.86    0.06269    87.01  RIGHT     2.25562E-11  -120.11    2.76298E-10  -170.46
    0.00   170.00     -21.06   -4.13   -4.04    0.04803   -82.36  RIGHT     8.56837E-02   -43.75    6.01345E-01   156.32
    5.00   170.00     -19.69   -3.24   -3.15    0.05551   -82.04  RIGHT     1.00241E-01   -42.73    6.66145E-01   159.36
   10.00   170.00     -18.15   -1.19   -1.11    0.05345   -82.51  RIGHT     1.19722E-01   -44.93    8.43481E-01   157.59
   15.00   170.00     -18.00    0.51    0.58    0.05130   -83.89  RIGHT     1.21788E-01   -51.34    1.02664E+00   154.60
   20.00   170.00     -21.76   -0.08   -0.06    0.05234   -86.36  RIGHT     7.89828E-02   -70.76    9.58221E-01   148.85
   25.00   170.00     -24.62   -7.36   -7.28    0.12948    87.44  RIGHT     5.68143E-02  -174.47    4.14724E-01   114.26
   30.00   170.00     -17.71   -1.00   -0.90    0.09801   -83.83  RIGHT     1.25937E-01   141.28    8.62797E-01     4.06
   35.00   170.00     -20.96    2.09    2.11    0.06319   -88.22  RIGHT     8.66678E-02   102.96    1.23063E+00   -13.13
   40.00   170.00     -19.63   -9.07   -8.70    0.29517   -88.44  RIGHT     1.00983E-01   -14.05    3.40682E-01  -108.86
   45.00   170.00     -19.36    3.60    3.62    0.06378   -88.20  RIGHT     1.04117E-01   -64.92    1.46445E+00   178.98
   50.00   170.00     -19.44   -9.39   -8.98    0.28187    82.05  RIGHT     1.03151E-01   172.49    3.28182E-01   106.59
   55.00   170.00     -20.62    4.62    4.63    0.05421   -89.59  RIGHT     9.00517E-02    99.48    1.64694E+00     1.97
   60.00   170.00     -18.59   -4.40   -4.24    0.15598   -83.30  RIGHT     1.13843E-01   -22.66    5.82959E-01  -148.62
   65.00   170.00     -21.21    3.75    3.76    0.04128    87.79  RIGHT     8.41800E-02  -132.74    1.48953E+00  -179.76
   70.00   170.00     -19.97    4.68    4.69    0.05608   -89.03  RIGHT     9.71140E-02   117.41    1.65805E+00    10.69
   75.00   170.00     -20.85  -13.22  -12.53    0.23281    70.92  RIGHT     8.77509E-02    -5.44    2.11152E-01   -43.99
   80.00   170.00     -19.36    5.76    5.77    0.04294    87.99  RIGHT     1.04190E-01  -122.23    1.87790E+00  -173.02
   85.00   170.00     -19.13    5.50    5.52    0.05631    89.07  RIGHT     1.06912E-01    83.88    1.82359E+00     9.98
   90.00   170.00    -999.99 -190.81 -190.78    0.06061    87.27  RIGHT     2.14997E-11  -119.61    2.78775E-10  -171.58
    0.00   180.00     -28.04   -4.06   -4.04    0.04803    87.64  RIGHT     3.83609E-02  -154.67    6.06207E-01   155.84
    5.00   180.00     -29.77   -3.18   -3.17    0.03372    88.14  RIGHT     3.14074E-02  -154.96    6.70864E-01   158.91
   10.00   180.00     -30.65   -1.14   -1.13    0.01230    88.22  RIGHT     2.83809E-02   178.88    8.48644E-01   157.27
   15.00   180.00     -27.23    0.56    0.56    0.00585    87.69  LEFT      4.20830E-02   146.17    1.03166E+00   154.43
   20.00   180.00     -23.48   -0.06   -0.04    0.01816    86.28  LEFT      6.48173E-02   133.19    9.61126E-01   148.87
   25.00   180.00     -22.98   -7.43   -7.31    0.03758    80.76  RIGHT     6.86618E-02   127.91    4.11439E-01   114.54
   30.00   180.00     -30.86   -0.97   -0.97    0.03120   -89.59  RIGHT     2.77008E-02   106.65    8.64954E-01     3.61
   35.00   180.00     -24.92    2.12    2.13    0.01086    87.53  LEFT      5.49325E-02   -27.38    1.23457E+00   -13.23
   40.00   180.00     -22.20   -9.18   -8.96    0.20493    84.95  RIGHT     7.50815E-02   -41.49    3.36454E-01  -109.19
   45.00   180.00     -30.50    3.62    3.63    0.00558    88.92  RIGHT     2.88749E-02  -164.74    1.46855E+00   178.77
   50.00   180.00     -21.12   -9.48   -9.19    0.15904    78.25  RIGHT     8.50363E-02   146.07    3.24910E-01   106.77
   55.00   180.00     -27.72    4.64    4.64    0.01035    88.75  RIGHT     3.97802E-02    27.26    1.65117E+00     1.79
   60.00   180.00     -21.61   -4.42   -4.33    0.13083   -87.46  RIGHT     8.04017E-02   -40.65    5.81898E-01  -149.08
   65.00   180.00     -23.10    3.77    3.78    0.00641    87.43  RIGHT     6.77339E-02  -171.74    1.49342E+00  -179.88
   70.00   180.00     -22.95    4.70    4.70    0.04139    89.86  RIGHT     6.88817E-02    97.16    1.66128E+00    10.46
   75.00   180.00     -22.73  -13.25  -12.79    0.09834    72.20  RIGHT     7.06323E-02   -24.85    2.10490E-01   -43.69
   80.00   180.00     -20.70    5.78    5.79    0.03349    88.08  RIGHT     8.92564E-02  -128.20    1.88223E+00  -173.19
   85.00   180.00     -18.88    5.52    5.54    0.05640    88.79  RIGHT     1.10074E-01    79.28    1.82740E+00     9.78
   90.00   180.00    -999.99 -190.79 -190.77    0.05845    87.49  RIGHT     2.04224E-11  -118.52    2.79395E-10  -171.77
    0.00   190.00     -17.24   -4.26   -4.04    0.04803    77.64  RIGHT     1.32947E-01   168.31    5.92691E-01   155.35
    5.00   190.00     -17.04   -3.38   -3.20    0.01196    78.30  RIGHT     1.35989E-01   162.13    6.55513E-01   158.69
   10.00   190.00     -15.40   -1.34   -1.17    0.02898    78.92  LEFT      1.64256E-01   148.67    8.29561E-01   157.42
   15.00   190.00     -13.60    0.37    0.54    0.06328    79.24  LEFT      2.02085E-01   135.81    1.00937E+00   154.92
   20.00   190.00     -13.58   -0.24   -0.05    0.08887    78.91  LEFT      2.02558E-01   124.32    9.41016E-01   149.69
   25.00   190.00     -18.45   -7.69   -7.34    0.05402    74.11  LEFT      1.15718E-01   104.11    3.99425E-01   115.74
   30.00   190.00     -21.09   -1.12   -1.07    0.03682    84.67  LEFT      8.53059E-02   -17.62    8.50734E-01     4.12
   35.00   190.00     -14.75    2.00    2.09    0.08546    83.29  LEFT      1.77115E-01   -48.90    1.21802E+00   -12.33
   40.00   190.00     -22.17   -9.41   -9.19    0.11128    78.60  RIGHT     7.53733E-02   -78.33    3.27321E-01  -108.50
   45.00   190.00     -17.69    3.54    3.57    0.05301    86.07  LEFT      1.26170E-01   141.73    1.45373E+00   179.58
   50.00   190.00     -20.68   -9.67   -9.33    0.03725    74.42  RIGHT     8.94662E-02   116.19    3.17983E-01   107.98
   55.00   190.00     -19.78    4.58    4.59    0.03364    87.11  LEFT      9.92834E-02   -31.22    1.63852E+00     2.60
   60.00   190.00     -23.76   -4.51   -4.46    0.10523    88.37  RIGHT     6.27326E-02   -73.53    5.75452E-01  -148.55
   65.00   190.00     -20.91    3.72    3.73    0.02859    87.07  LEFT      8.71338E-02   151.72    1.48469E+00  -179.03
   70.00   190.00     -24.58    4.64    4.65    0.02689    88.75  RIGHT     5.71271E-02    62.23    1.65147E+00    11.18
   75.00   190.00     -23.45  -13.34  -12.93    0.04055    72.79  LEFT      6.50780E-02   -50.61    2.08315E-01   -42.43
   80.00   190.00     -22.14    5.74    5.75    0.02409    88.14  RIGHT     7.56665E-02  -135.76    1.87328E+00  -172.43
   85.00   190.00     -18.59    5.48    5.50    0.05666    88.48  RIGHT     1.13805E-01    75.48    1.81865E+00    10.51
   90.00   190.00    -999.99 -190.83 -190.81    0.05640    87.66  RIGHT     1.93659E-11  -116.79    2.78114E-10  -171.02
    0.00   200.00     -12.39   -4.73   -4.04    0.04803    67.64  RIGHT     2.32373E-01   162.61    5.61214E-01   154.82
    5.00   200.00     -11.91   -3.86   -3.23    0.00921    68.42  LEFT      2.45509E-01   157.16    6.20528E-01   158.71
   10.00   200.00     -10.20   -1.80   -1.21    0.06979    69.52  LEFT      2.98927E-01   145.99    7.86856E-01   158.06
   15.00   200.00      -8.67   -0.06    0.50    0.12092    70.65  LEFT      3.56427E-01   134.69    9.60703E-01   156.13
   20.00   200.00      -9.21   -0.64   -0.07    0.16060    71.37  LEFT      3.35221E-01   122.82    8.99008E-01   151.39
   25.00   200.00     -15.23   -8.13   -7.36    0.14597    67.32  LEFT      1.67664E-01    95.22    3.79408E-01   117.97
   30.00   200.00     -14.44   -1.43   -1.22    0.10843    78.93  LEFT      1.83621E-01   -24.57    8.20877E-01     5.64
   35.00   200.00     -10.22    1.74    2.01    0.16313    79.09  LEFT      2.98463E-01   -52.42    1.18230E+00   -10.39
   40.00   200.00     -19.79   -9.78   -9.37    0.01459    72.49  RIGHT     9.90997E-02  -103.81    3.13730E-01  -106.72
   45.00   200.00     -12.41    3.34    3.45    0.11391    83.34  LEFT      2.31826E-01   136.38    1.42126E+00  -178.56
   50.00   200.00     -18.76   -9.95   -9.41    0.08368    70.57  LEFT      1.11601E-01    95.25    3.07894E-01   110.28
   55.00   200.00     -14.73    4.42    4.48    0.07881    85.59  LEFT      1.77493E-01   -41.56    1.61023E+00     4.43
   60.00   200.00     -22.66   -4.69   -4.62    0.07690    84.28  RIGHT     7.11986E-02  -109.05    5.63996E-01  -147.02
   65.00   200.00     -17.81    3.60    3.63    0.06379    86.79  LEFT      1.24439E-01   133.94    1.46440E+00  -177.20
   70.00   200.00     -22.97    4.53    4.54    0.01190    87.68  RIGHT     6.87715E-02    29.27    1.62962E+00    12.86
   75.00   200.00     -22.51  -13.48  -12.97    0.18130    73.06  LEFT      7.24928E-02   -74.13    2.04852E-01   -40.21
   80.00   200.00     -23.56    5.64    5.64    0.01487    88.21  RIGHT     6.42172E-02  -145.29    1.85211E+00  -170.71
   85.00   200.00     -18.29    5.38    5.40    0.05687    88.14  RIGHT     1.17769E-01    72.56    1.79834E+00    12.18
   90.00   200.00    -999.99 -190.92 -190.91    0.05457    87.80  RIGHT     1.83716E-11  -114.41    2.75082E-10  -169.32
    0.00   210.00      -9.46   -5.52   -4.04    0.04803    57.64  RIGHT     3.25665E-01   160.29    5.12738E-01   154.21
    5.00   210.00      -8.88   -4.64   -3.25    0.02919    58.48  LEFT      3.48019E-01   155.25    5.66972E-01   159.00
   10.00   210.00      -7.16   -2.54   -1.25    0.10934    59.94  LEFT      4.24362E-01   145.00    7.22048E-01   159.32
   15.00   210.00      -5.74   -0.75    0.45    0.17849    61.79  LEFT      4.99710E-01   134.35    8.87853E-01   158.22
   20.00   210.00      -6.50   -1.25   -0.12    0.23393    63.51  LEFT      4.57947E-01   122.36    8.37501E-01   154.16
   25.00   210.00     -12.99   -8.77   -7.37    0.23877    60.20  LEFT      2.16810E-01    91.03    3.52710E-01   121.45
   30.00   210.00     -10.90   -1.90   -1.39    0.18619    73.16  LEFT      2.75775E-01   -26.52    7.77273E-01     8.30
[...]
   50.00   280.00     -13.03  -11.46   -9.17    0.81113   -75.06  LEFT      2.15766E-01    70.53    2.58541E-01   166.53
   55.00   280.00      -6.54    3.08    3.53    0.32627   -87.06  LEFT      4.55511E-01   -44.67    1.37932E+00    53.32
   60.00   280.00     -14.72   -6.15   -5.59    0.26690    75.33  LEFT      1.77734E-01  -149.59    4.76539E-01  -100.04
   65.00   280.00     -10.98    2.59    2.78    0.19915   -86.25  LEFT      2.73401E-01   120.40    1.30413E+00  -132.13
   70.00   280.00     -15.18    3.53    3.59    0.10134    86.77  LEFT      1.68567E-01    -4.86    1.45334E+00    56.36
   75.00   280.00     -16.98  -14.22  -12.38    0.60105   -65.47  LEFT      1.36927E-01  -107.02    1.88149E-01     4.85
   80.00   280.00     -28.47    4.81    4.81    0.01996    89.52  LEFT      3.64901E-02   164.09    1.68351E+00  -128.87
   85.00   280.00     -17.63    4.56    4.59    0.03145    85.94  RIGHT     1.27091E-01    77.55    1.63591E+00    53.55
   90.00   280.00    -999.99 -191.72 -191.71    0.04325    87.35  RIGHT     1.58814E-11   -84.85    2.50920E-10  -128.06
    0.00   290.00      -4.73  -12.39   -4.04    0.04803   -22.36  RIGHT     5.61214E-01   154.82    2.32373E-01   -17.39
    5.00   290.00      -4.06  -11.32   -3.31    0.08106   -23.07  LEFT      6.06546E-01   151.31    2.62827E-01   -41.44
   10.00   290.00      -2.36   -8.19   -1.36    0.22105   -24.88  LEFT      7.37111E-01   143.68    3.76716E-01   -67.65
   15.00   290.00      -1.15   -5.10    0.32    0.35621   -28.32  LEFT      8.47370E-01   135.35    5.37616E-01   -88.98
   20.00   290.00      -2.34   -4.42   -0.24    0.47285   -34.12  LEFT      7.39487E-01   124.82    5.81828E-01  -107.85
   25.00   290.00     -10.04  -10.64   -7.32    0.54093   -41.42  LEFT      3.04480E-01    88.97    2.84393E-01  -148.06
   30.00   290.00      -5.63   -4.39   -1.96    0.62469   -54.45  LEFT      5.05914E-01   -27.65    5.83702E-01    87.13
   35.00   290.00      -3.14   -0.36    1.48    0.57936   -64.25  LEFT      6.74408E-01   -50.80    9.28817E-01    63.37
   40.00   290.00     -13.86  -11.80   -9.70    0.75597   -74.38  LEFT      1.96150E-01  -131.61    2.48734E-01   -33.24
   45.00   290.00      -4.65    1.81    2.70    0.44226   -79.89  LEFT      5.66601E-01   137.17    1.19187E+00  -115.37
   50.00   290.00     -13.78  -11.08   -9.21    0.68819   -73.70  LEFT      1.98031E-01    72.23    2.70157E-01   173.87
   55.00   290.00      -7.10    3.32    3.69    0.29030   -85.34  LEFT      4.27235E-01   -43.71    1.41729E+00    60.62
   60.00   290.00     -15.53   -5.92   -5.47    0.26308    78.63  LEFT      1.61833E-01  -148.48    4.89447E-01   -92.85
   65.00   290.00     -11.58    2.78    2.93    0.17597   -85.69  LEFT      2.54950E-01   122.06    1.33206E+00  -125.52
   70.00   290.00     -15.93    3.70    3.75    0.09522    87.57  LEFT      1.54532E-01    -3.33    1.48190E+00    62.84
   75.00   290.00     -17.72  -14.03  -12.48    0.52944   -67.80  LEFT      1.25732E-01  -104.61    1.92432E-01    10.82
   80.00   290.00     -29.62    4.96    4.96    0.01662    89.51  LEFT      3.19760E-02   174.37    1.71245E+00  -122.72
   85.00   290.00     -17.82    4.71    4.73    0.02719    86.01  RIGHT     1.24389E-01    81.09    1.66324E+00    59.66
   90.00   290.00    -999.99 -191.58 -191.56    0.04033    87.17  RIGHT     1.62621E-11   -82.64    2.55058E-10  -121.99
    0.00   300.00      -5.52   -9.46   -4.04    0.04803   -32.36  RIGHT     5.12738E-01   154.21    3.25665E-01   -19.71
    5.00   300.00      -4.85   -8.48   -3.29    0.06981   -33.24  LEFT      5.53378E-01   150.86    3.64402E-01   -37.84
   10.00   300.00      -3.17   -5.90   -1.32    0.19577   -35.41  LEFT      6.71583E-01   143.53    4.90480E-01   -59.79
   15.00   300.00      -1.98   -3.41    0.37    0.31197   -39.25  LEFT      7.70728E-01   135.54    6.53107E-01   -79.66
   20.00   300.00      -3.18   -3.19   -0.18    0.40535   -44.98  LEFT      6.70711E-01   125.45    6.70366E-01   -98.68
   25.00   300.00     -11.06   -9.67   -7.30    0.46452   -52.13  LEFT      2.70907E-01    90.35    3.17965E-01  -140.37
   30.00   300.00      -6.50   -3.57   -1.78    0.48556   -60.89  LEFT      4.57683E-01   -27.80    6.41795E-01    95.98
   35.00   300.00      -3.98    0.25    1.64    0.46286   -67.14  LEFT      6.11752E-01   -49.96    9.95521E-01    71.33
   40.00   300.00     -15.10  -11.14   -9.67    0.59282   -76.28  LEFT      1.70192E-01  -130.31    2.68214E-01   -26.16
   45.00   300.00      -5.52    2.23    2.90    0.36355   -79.14  LEFT      5.12688E-01   137.91    1.25021E+00  -108.25
   50.00   300.00     -14.92  -10.65   -9.27    0.56959   -76.54  LEFT      1.73730E-01    74.94    2.83798E-01   179.97
   55.00   300.00      -8.00    3.62    3.91    0.24521   -84.64  LEFT      3.85209E-01   -42.62    1.46749E+00    67.02
   60.00   300.00     -16.84   -5.61   -5.30    0.23327    81.75  LEFT      1.39200E-01  -146.59    5.07041E-01   -86.52
   65.00   300.00     -12.53    3.01    3.13    0.14925   -85.72  LEFT      2.28536E-01   124.34    1.36864E+00  -119.65
   70.00   300.00     -17.14    3.92    3.96    0.08283    88.22  LEFT      1.34515E-01    -0.92    1.52016E+00    68.63
   75.00   300.00     -18.86  -13.80  -12.62    0.46061   -71.88  LEFT      1.10341E-01  -100.78    1.97505E-01    16.04
   80.00   300.00     -30.50    5.15    5.15    0.01267    89.39  LEFT      2.88798E-02  -167.37    1.75075E+00  -117.19
   85.00   300.00     -18.04    4.89    4.92    0.02430    86.16  RIGHT     1.21293E-01    85.16    1.69962E+00    65.16
   90.00   300.00    -999.99 -191.40 -191.38    0.03704    87.00  RIGHT     1.67353E-11   -81.19    2.60543E-10  -116.52
    0.00   310.00      -6.67   -7.47   -4.04    0.04803   -42.36  RIGHT     4.48755E-01   153.44    4.09361E-01   -21.03
    5.00   310.00      -6.03   -6.53   -3.26    0.05516   -43.34  LEFT      4.83199E-01   150.26    4.56116E-01   -36.07
   10.00   310.00      -4.37   -4.19   -1.27    0.16411   -45.61  LEFT      5.85278E-01   143.28    5.97172E-01   -55.36
   15.00   310.00      -3.19   -2.03    0.44    0.26058   -49.37  LEFT      6.70389E-01   135.71    7.65974E-01   -73.79
   20.00   310.00      -4.42   -2.11   -0.10    0.33478   -54.50  LEFT      5.81735E-01   126.21    7.59102E-01   -92.36
   25.00   310.00     -12.51   -8.82   -7.27    0.38694   -61.41  LEFT      2.29257E-01    92.39    3.50575E-01  -134.89
   30.00   310.00      -7.80   -2.76   -1.58    0.36627   -66.60  LEFT      3.94212E-01   -28.18    7.04052E-01   102.57
   35.00   310.00      -5.22    0.85    1.81    0.36243   -70.91  LEFT      5.30512E-01   -48.97    1.06693E+00    77.56
   40.00   310.00     -16.93  -10.51   -9.62    0.44548   -79.97  LEFT      1.37831E-01  -127.99    2.88434E-01   -20.83
   45.00   310.00      -6.80    2.66    3.13    0.28658   -79.94  LEFT      4.42448E-01   138.71    1.31438E+00  -102.44
   50.00   310.00     -16.55  -10.24   -9.32    0.45658   -80.71  LEFT      1.44009E-01    79.35    2.97768E-01  -175.22
   55.00   310.00      -9.32    3.94    4.14    0.19736   -84.82  LEFT      3.30783E-01   -41.29    1.52315E+00    72.37
   60.00   310.00     -18.83   -5.28   -5.09    0.18362    84.17  LEFT      1.10697E-01  -143.25    5.27042E-01   -81.24
   65.00   310.00     -13.90    3.26    3.35    0.12211   -86.25  LEFT      1.95222E-01   127.59    1.40904E+00  -114.67
   70.00   310.00     -18.94    4.17    4.19    0.06593    88.66  LEFT      1.09362E-01     3.03    1.56315E+00    73.57
   75.00   310.00     -20.46  -13.57  -12.77    0.39325   -77.18  LEFT      9.17434E-02   -94.56    2.02743E-01    20.38
   80.00   310.00     -30.11    5.36    5.36    0.00863    89.17  LEFT      3.02142E-02  -143.26    1.79346E+00  -112.45
   85.00   310.00     -18.27    5.10    5.12    0.02293    86.35  RIGHT     1.18106E-01    89.71    1.74040E+00    69.88
   90.00   310.00    -999.99 -191.19 -191.18    0.03358    86.83  RIGHT     1.72846E-11   -80.52    2.66672E-10  -111.83
    0.00   320.00      -8.32   -6.08   -4.04    0.04803   -52.36  RIGHT     3.71246E-01   152.39    4.80764E-01   -21.93
    5.00   320.00      -7.71   -5.15   -3.24    0.03769   -53.35  LEFT      3.98172E-01   149.38    5.34633E-01   -35.12
   10.00   320.00      -6.07   -2.94   -1.22    0.12784   -55.48  LEFT      4.80835E-01   142.85    6.90075E-01   -52.71
   15.00   320.00      -4.92   -0.96    0.51    0.20556   -58.82  LEFT      5.49410E-01   135.86    8.66259E-01   -70.00
   20.00   320.00      -6.17   -1.24   -0.03    0.26497   -63.14  LEFT      4.75317E-01   127.22    8.38944E-01   -88.04
   25.00   320.00     -14.56   -8.14   -7.25    0.31106   -69.87  LEFT      1.81082E-01    95.74    3.79062E-01  -131.08
   30.00   320.00      -9.68   -2.06   -1.37    0.26187   -71.98  LEFT      3.17488E-01   -28.99    7.63120E-01   107.30
   35.00   320.00      -6.98    1.38    1.97    0.27485   -75.07  LEFT      4.33241E-01   -47.71    1.13444E+00    82.23
   40.00   320.00     -19.68   -9.96   -9.52    0.31057   -84.19  LEFT      1.00382E-01  -123.38    3.07282E-01   -17.03
   45.00   320.00      -8.63    3.06    3.35    0.21511   -81.67  LEFT      3.58065E-01   139.63    1.37653E+00   -97.92
   50.00   320.00     -18.82   -9.87   -9.35    0.34803   -85.49  LEFT      1.10793E-01    87.16    3.10574E-01  -171.63
   55.00   320.00     -11.23    4.25    4.37    0.15037   -85.66  LEFT      2.65718E-01   -39.50    1.57746E+00    76.64
   60.00   320.00     -21.90   -4.95   -4.87    0.12164    85.80  LEFT      7.77491E-02  -136.43    5.47137E-01   -77.05
   65.00   320.00     -15.82    3.50    3.55    0.09636   -87.19  LEFT      1.56564E-01   132.67    1.44832E+00  -110.65
   70.00   320.00     -21.60    4.40    4.41    0.04619    88.88  LEFT      8.04968E-02    10.41    1.60569E+00    77.58
   75.00   320.00     -22.59  -13.37  -12.88    0.32590   -83.35  LEFT      7.17798E-02   -83.70    2.07546E-01    23.79
   80.00   320.00     -28.21    5.56    5.56    0.00482    88.86  LEFT      3.75834E-02  -122.19    1.83543E+00  -108.58
   85.00   320.00     -18.49    5.30    5.32    0.02301    86.54  RIGHT     1.15139E-01    94.67    1.78067E+00    73.74
   90.00   320.00    -999.99 -191.00 -190.98    0.03013    86.66  RIGHT     1.78992E-11   -80.56    2.72705E-10  -107.99
    0.00   330.00     -10.69   -5.10   -4.04    0.04803   -62.36  RIGHT     2.82654E-01   150.71    5.37648E-01   -22.61
    5.00   330.00     -10.14   -4.19   -3.21    0.01802   -63.27  LEFT      3.00961E-01   147.92    5.97375E-01   -34.65
   10.00   330.00      -8.55   -2.04   -1.17    0.08849   -65.08  LEFT      3.61461E-01   142.04    7.64904E-01   -51.10
   15.00   330.00      -7.43   -0.18    0.57    0.14907   -67.77  LEFT      4.11473E-01   135.97    9.47657E-01   -67.56
   20.00   330.00      -8.71   -0.59    0.03    0.19724   -71.20  LEFT      3.54799E-01   128.79    9.03781E-01   -85.14
   25.00   330.00     -17.53   -7.65   -7.22    0.23754   -77.82  LEFT      1.28620E-01   102.11    4.01229E-01  -128.56
   30.00   330.00     -12.48   -1.51   -1.17    0.16834   -77.19  LEFT      2.29964E-01   -30.74    8.13550E-01   110.55
   35.00   330.00      -9.53    1.81    2.11    0.19697   -79.43  LEFT      3.23045E-01   -45.78    1.19128E+00    85.58
   40.00   330.00     -24.10   -9.53   -9.38    0.18529   -88.66  LEFT      6.03555E-02  -111.51    3.23169E-01   -14.55
   45.00   330.00     -11.34    3.39    3.54    0.14947   -83.94  LEFT      2.62161E-01   140.91    1.43003E+00   -94.60
   50.00   330.00     -21.85   -9.58   -9.33    0.24325    89.41  LEFT      7.81611E-02   103.08    3.21035E-01  -169.18
   55.00   330.00     -14.04    4.50    4.56    0.10566   -86.95  LEFT      1.92203E-01   -36.59    1.62445E+00    79.83
   60.00   330.00     -26.85   -4.67   -4.64    0.05307    86.74  LEFT      4.39928E-02  -117.11    5.65270E-01   -73.95
   65.00   330.00     -18.49    3.70    3.73    0.07266   -88.43  LEFT      1.15122E-01   141.81    1.48206E+00  -107.59
   70.00   330.00     -25.52    4.60    4.60    0.02483    88.92  LEFT      5.12517E-02    27.86    1.64307E+00    80.63
   75.00   330.00     -24.98  -13.21  -12.93    0.25787    89.90  LEFT      5.45171E-02   -63.35    2.11404E-01    26.27
   80.00   330.00     -25.78    5.73    5.73    0.00133    88.48  LEFT      4.97097E-02  -108.48    1.87188E+00  -105.61
   85.00   330.00     -18.68    5.47    5.48    0.02436    86.73  RIGHT     1.12677E-01    99.89    1.81589E+00    76.70
   90.00   330.00    -999.99 -190.83 -190.81    0.02683    86.50  RIGHT     1.85726E-11   -81.27    2.77957E-10  -105.04
    0.00   340.00     -14.33   -4.47   -4.04    0.04803   -72.36  RIGHT     1.85949E-01   147.36    5.78257E-01   -23.17
    5.00   340.00     -13.92   -3.56   -3.18    0.00320   -73.13  RIGHT     1.94774E-01   144.84    6.42362E-01   -34.50
   10.00   340.00     -12.45   -1.45   -1.12    0.04729   -74.46  LEFT      2.30897E-01   140.22    8.18703E-01   -50.19
   15.00   340.00     -11.39    0.34    0.62    0.09224   -76.38  LEFT      2.60765E-01   136.05    1.00600E+00   -66.07
   20.00   340.00     -12.70   -0.16    0.07    0.13164   -78.91  LEFT      2.24177E-01   132.04    9.49525E-01   -83.31
   25.00   340.00     -22.04   -7.34   -7.20    0.16614   -85.46  LEFT      7.65195E-02   118.14    4.15617E-01  -127.08
   30.00   340.00     -17.12   -1.11   -1.00    0.08237   -82.30  LEFT      1.34760E-01   -35.41    8.51520E-01   112.59
   35.00   340.00     -13.53    2.10    2.22    0.12594   -83.89  LEFT      2.03712E-01   -41.83    1.23251E+00    87.76
   40.00   340.00     -30.23   -9.21   -9.18    0.06769    86.69  LEFT      2.98064E-02   -62.96    3.34994E-01   -13.21
   45.00   340.00     -15.75    3.63    3.68    0.08855   -86.53  LEFT      1.57785E-01   143.50    1.46983E+00   -92.39
   50.00   340.00     -24.50   -9.39   -9.26    0.14220    84.12  LEFT      5.76445E-02   137.30    3.28312E-01  -167.79
   55.00   340.00     -18.64    4.69    4.71    0.06328   -88.54  LEFT      1.13222E-01   -29.86    1.65940E+00    82.00
   60.00   340.00     -30.07   -4.45   -4.44    0.01871    87.20  RIGHT     3.03417E-02   -50.88    5.79801E-01   -71.87
   65.00   340.00     -22.01    3.85    3.86    0.05088   -89.86  LEFT      7.67564E-02   161.66    1.50668E+00  -105.51
   70.00   340.00     -28.84    4.75    4.75    0.00259    88.81  LEFT      3.49610E-02    75.61    1.67144E+00    82.73
   75.00   340.00     -25.98  -13.11  -12.89    0.18959    82.85  LEFT      4.86161E-02   -30.06    2.13936E-01    27.82
   80.00   340.00     -23.49    5.86    5.86    0.00191    88.05  RIGHT     6.47318E-02  -100.36    1.89894E+00  -103.57
   85.00   340.00     -18.81    5.59    5.61    0.02675    86.91  RIGHT     1.10933E-01   105.21    1.84234E+00    78.75
   90.00   340.00    -999.99 -190.71 -190.69    0.02383    86.33  RIGHT     1.93000E-11   -82.55    2.81870E-10  -103.00
    0.00   350.00     -21.06   -4.13   -4.04    0.04803   -82.36  RIGHT     8.56837E-02   136.25    6.01345E-01   -23.68
    5.00   350.00     -21.18   -3.22   -3.15    0.02532   -82.94  RIGHT     8.44640E-02   133.67    6.68210E-01   -34.59
   10.00   350.00     -20.26   -1.13   -1.08    0.00520   -83.70  LEFT      9.38870E-02   132.92    8.49514E-01   -49.82
   15.00   350.00     -19.55    0.62    0.66    0.03557   -84.78  LEFT      1.01860E-01   136.12    1.03862E+00   -65.33
   20.00   350.00     -20.65    0.05    0.09    0.06758   -86.41  LEFT      8.97724E-02   145.02    9.73606E-01   -82.36
   25.00   350.00     -26.48   -7.22   -7.17    0.09626    87.09  LEFT      4.58768E-02   171.07    4.21371E-01  -126.51
   30.00   350.00     -27.63   -0.88   -0.87    0.00117   -87.37  LEFT      4.01838E-02   -64.94    8.74556E-01   113.60
   35.00   350.00     -21.44    2.26    2.28    0.05913   -88.41  LEFT      8.19959E-02   -26.16    1.25490E+00    88.92
   40.00   350.00     -25.55   -9.03   -8.94    0.04350    81.88  RIGHT     5.10453E-02     4.41    3.42091E-01   -12.90
   45.00   350.00     -25.83    3.76    3.77    0.03075   -89.29  LEFT      4.94736E-02   156.92    1.49248E+00   -91.19
   50.00   350.00     -23.06   -9.29   -9.11    0.04523    78.70  LEFT      6.80172E-02   179.34    3.31905E-01  -167.39
   55.00   350.00     -27.91    4.79    4.79    0.02258    89.70  LEFT      3.89000E-02     6.15    1.67903E+00    83.18
   60.00   350.00     -24.06   -4.30   -4.26    0.09205    87.37  RIGHT     6.06325E-02    -7.04    5.89569E-01   -70.80
   65.00   350.00     -24.23    3.92    3.93    0.03043    88.59  LEFT      5.94670E-02  -155.47    1.51970E+00  -104.37
   70.00   350.00     -25.20    4.83    4.84    0.02018    88.61  RIGHT     5.32015E-02   123.74    1.68805E+00    83.89
   75.00   350.00     -24.09  -13.07  -12.74    0.12236    75.79  LEFT      6.04041E-02     0.88    2.14902E-01    28.45
   80.00   350.00     -21.51    5.92    5.93    0.00507    87.58  RIGHT     8.13464E-02   -95.57    1.91383E+00  -102.44
   85.00   350.00     -18.88    5.66    5.68    0.02999    87.08  RIGHT     1.10014E-01   110.39    1.85736E+00    79.88
   90.00   350.00    -999.99 -190.65 -190.62    0.02122    86.14  RIGHT     2.00764E-11   -84.32    2.84042E-10  -101.88
    0.00   360.00     -28.04   -4.06   -4.04    0.04803    87.64  RIGHT     3.83609E-02    25.33    6.06207E-01   -24.16
    5.00   360.00     -26.57   -3.14   -3.12    0.04772    87.28  RIGHT     4.53929E-02    10.34    6.74147E-01   -34.92
   10.00   360.00     -25.16   -1.06   -1.04    0.03703    87.12  RIGHT     5.34354E-02   -13.41    8.56286E-01   -49.91
   15.00   360.00     -24.09    0.66    0.68    0.02084    86.91  RIGHT     6.04266E-02   -44.07    1.04414E+00   -65.24
   20.00   360.00     -23.40    0.06    0.08    0.00419    86.17  LEFT      6.54085E-02   -85.79    9.74727E-01   -82.19
   25.00   360.00     -22.05   -7.29   -7.14    0.02714    79.76  LEFT      7.64182E-02  -135.63    4.18171E-01  -126.81
   30.00   360.00     -21.86   -0.81   -0.78    0.07770    87.56  RIGHT     7.80943E-02   175.12    8.81346E-01   113.66
   35.00   360.00     -23.41    2.27    2.28    0.00589    87.04  RIGHT     6.53294E-02    95.64    1.25676E+00    89.11
   40.00   360.00     -20.13   -8.98   -8.66    0.14913    76.86  RIGHT     9.52897E-02    21.01    3.44194E-01   -13.56
   45.00   360.00     -23.10    3.79    3.79    0.02575    87.87  RIGHT     6.77230E-02   -56.26    1.49611E+00   -90.98
   50.00   360.00     -19.60   -9.30   -8.91    0.04710    73.20  RIGHT     1.01316E-01  -158.28    3.31645E-01  -167.97
   55.00   360.00     -22.91    4.80    4.81    0.01749    87.87  RIGHT     6.92324E-02   108.57    1.68154E+00    83.40
   60.00   360.00     -19.52   -4.24   -4.11    0.16634    87.44  RIGHT     1.02297E-01     4.70    5.93914E-01   -70.68
   65.00   360.00     -21.44    3.92    3.93    0.01046    86.97  LEFT      8.19377E-02  -115.39    1.51977E+00  -104.17
   70.00   360.00     -20.86    4.85    4.86    0.04340    88.38  RIGHT     8.76509E-02   141.07    1.69135E+00    84.12
   75.00   360.00     -21.30  -13.10  -12.49    0.05777    68.96  LEFT      8.33117E-02    18.34    2.14216E-01    28.16
   80.00   360.00     -19.83    5.93    5.94    0.00843    87.09  RIGHT     9.86519E-02   -92.78    1.91502E+00  -102.22
   85.00   360.00     -18.89    5.67    5.69    0.03392    87.23  RIGHT     1.09905E-01   115.22    1.85943E+00    80.11
   90.00   360.00    -999.99 -190.64 -190.62    0.01913    85.94  RIGHT     2.08938E-11   -86.49    2.84251E-10  -101.65


   AVERAGE POWER GAIN= 1.50527E+00       SOLID ANGLE USED IN AVERAGING=( 2.0000)*PI STERADIANS.








 ***** DATA CARD NO.  7   EN   0    19    37  1003  0.00000E+00  0.00000E+00  5.00000E+00  1.00000E+01  0.00000E+00  0.00000E+00

 RUN TIME =     0.141
