1



                                 *********************************************

                                    NUMERICAL ELECTROMAGNETICS CODE (NEC-2D)

                                 *********************************************




                                     - - - - COMMENTS - - - -


                                                                                                     
                                                                                                     




                                 - - - STRUCTURE SPECIFICATION - - -

                                     COORDINATES MUST BE INPUT IN
                                     METERS OR BE SCALED TO METERS
                                     BEFORE STRUCTURE INPUT IS ENDED


  WIRE                                                                               NO. OF    FIRST  LAST     TAG
  NO.        X1         Y1         Z1          X2         Y2         Z2      RADIUS   SEG.     SEG.   SEG.     NO.
     1   -1.00000    0.00000   -0.52000    -1.00000    0.00000   -0.05200    0.00500      9        1     9       1
     2   -1.00000    0.00000   -0.05200    -1.00000    0.00000    0.00000    0.00500      1       10    10     999
     3   -1.00000    0.00000    0.00000    -1.00000    0.00000    0.52000    0.00500      9       11    19       1

   TOTAL SEGMENTS USED=   19     NO. SEG. IN A SYMMETRIC CELL=   19     SYMMETRY FLAG=  0


         - MULTIPLE WIRE JUNCTIONS -
 JUNCTION    SEGMENTS  (- FOR END 1, + FOR END 2)
  NONE




                                 - - - - SEGMENTATION DATA - - - -

                                        COORDINATES IN METERS

                         I+ AND I- INDICATE THE SEGMENTS BEFORE AND AFTER I


  SEG.   COORDINATES OF SEG. CENTER     SEG.     ORIENTATION ANGLES    WIRE    CONNECTION DATA   TAG
  NO.       X         Y         Z       LENGTH     ALPHA     BETA      RADIUS    I-   I    I+    NO.
     1  -1.00000   0.00000  -0.49400   0.05200   90.00000   0.00000   0.00500     0    1    2      1
     2  -1.00000   0.00000  -0.44200   0.05200   90.00000   0.00000   0.00500     1    2    3      1
     3  -1.00000   0.00000  -0.39000   0.05200   90.00000   0.00000   0.00500     2    3    4      1
     4  -1.00000   0.00000  -0.33800   0.05200   90.00000   0.00000   0.00500     3    4    5      1
     5  -1.00000   0.00000  -0.28600   0.05200   90.00000   0.00000   0.00500     4    5    6      1
     6  -1.00000   0.00000  -0.23400   0.05200   90.00000   0.00000   0.00500     5    6    7      1
     7  -1.00000   0.00000  -0.18200   0.05200   90.00000   0.00000   0.00500     6    7    8      1
     8  -1.00000   0.00000  -0.13000   0.05200   90.00000   0.00000   0.00500     7    8    9      1
     9  -1.00000   0.00000  -0.07800   0.05200   90.00000   0.00000   0.00500     8    9   10      1
    10  -1.00000   0.00000  -0.02600   0.05200   90.00000   0.00000   0.00500     9   10   11    999
    11  -1.00000   0.00000   0.02889   0.05778   90.00000   0.00000   0.00500    10   11   12      1
    12  -1.00000   0.00000   0.08667   0.05778   90.00000   0.00000   0.00500    11   12   13      1
    13  -1.00000   0.00000   0.14444   0.05778   90.00000   0.00000   0.00500    12   13   14      1
    14  -1.00000   0.00000   0.20222   0.05778   90.00000   0.00000   0.00500    13   14   15      1
    15  -1.00000   0.00000   0.26000   0.05778   90.00000   0.00000   0.00500    14   15   16      1
    16  -1.00000   0.00000   0.31778   0.05778   90.00000   0.00000   0.00500    15   16   17      1
    17  -1.00000   0.00000   0.37556   0.05778   90.00000   0.00000   0.00500    16   17   18      1
    18  -1.00000   0.00000   0.43333   0.05778   90.00000   0.00000   0.00500    17   18   19      1
    19  -1.00000   0.00000   0.49111   0.05778   90.00000   0.00000   0.00500    18   19    0      1






 ***** DATA CARD NO.  1   EK   0     0     0     0  0.00000E+00  0.00000E+00  0.00000E+00  0.00000E+00  0.00000E+00  0.00000E+00
 ***** DATA CARD NO.  2   EX   0   999     1     0  1.00000E+00  0.00000E+00  0.00000E+00  0.00000E+00  0.00000E+00  0.00000E+00
 ***** DATA CARD NO.  3   FR   0     1     0     0  1.44200E+02  0.00000E+00  0.00000E+00  0.00000E+00  0.00000E+00  0.00000E+00
 ***** DATA CARD NO.  4   RP   0    37    37  1003  0.00000E+00  0.00000E+00  5.00000E+00  1.00000E+01  0.00000E+00  0.00000E+00




                                 - - - - - - FREQUENCY - - - - - -

                                    FREQUENCY= 1.4420E+02 MHZ
                                    WAVELENGTH= 2.0791E+00 METERS




                    APPROXIMATE INTEGRATION EMPLOYED FOR SEGMENTS MORE THAN   1.000 WAVELENGTHS APART

                    THE EXTENDED THIN WIRE KERNEL WILL BE USED



                               - - - STRUCTURE IMPEDANCE LOADING - - -

                                   THIS STRUCTURE IS NOT LOADED



                                  - - - ANTENNA ENVIRONMENT - - -

                                            FREE SPACE



                                - - - MATRIX TIMING - - -

                        FILL=    0.000 SEC.,  FACTOR=    0.000 SEC.



                                          - - - ANTENNA INPUT PARAMETERS - - -

   TAG   SEG.    VOLTAGE (VOLTS)         CURRENT (AMPS)         IMPEDANCE (OHMS)        ADMITTANCE (MHOS)      POWER
   NO.   NO.    REAL        IMAG.       REAL        IMAG.       REAL        IMAG.       REAL        IMAG.     (WATTS)
   999    10 1.00000E+00 0.00000E+00 8.54704E-03-4.74731E-03 8.94146E+01 4.96639E+01 8.54704E-03-4.74731E-03 4.27352E-03



                             - - - CURRENTS AND LOCATION - - -

                                 DISTANCES IN WAVELENGTHS


  SEG.  TAG    COORD. OF SEG. CENTER     SEG.            - - - CURRENT (AMPS) - - -
  NO.   NO.     X        Y        Z      LENGTH     REAL        IMAG.       MAG.        PHASE
     1    1  -0.4810   0.0000  -0.2376  0.02501   1.0672E-03 -8.5450E-04  1.3671E-03  -38.685
     2    1  -0.4810   0.0000  -0.2126  0.02501   2.5147E-03 -1.9694E-03  3.1941E-03  -38.067
     3    1  -0.4810   0.0000  -0.1876  0.02501   3.7597E-03 -2.8742E-03  4.7325E-03  -37.398
     4    1  -0.4810   0.0000  -0.1626  0.02501   4.8843E-03 -3.6376E-03  6.0900E-03  -36.678
     5    1  -0.4810   0.0000  -0.1376  0.02501   5.8829E-03 -4.2562E-03  7.2611E-03  -35.885
     6    1  -0.4810   0.0000  -0.1126  0.02501   6.7431E-03 -4.7205E-03  8.2312E-03  -34.994
     7    1  -0.4810   0.0000  -0.0875  0.02501   7.4510E-03 -5.0186E-03  8.9836E-03  -33.962
     8    1  -0.4810   0.0000  -0.0625  0.02501   7.9939E-03 -5.1359E-03  9.5016E-03  -32.720
     9    1  -0.4810   0.0000  -0.0375  0.02501   8.3617E-03 -5.0312E-03  9.7586E-03  -31.035
    10  999  -0.4810   0.0000  -0.0125  0.02501   8.5470E-03 -4.7473E-03  9.7770E-03  -29.049
    11    1  -0.4810   0.0000   0.0139  0.02779   8.5409E-03 -5.2091E-03  1.0004E-02  -31.379
    12    1  -0.4810   0.0000   0.0417  0.02779   8.3109E-03 -5.4714E-03  9.9502E-03  -33.358
    13    1  -0.4810   0.0000   0.0695  0.02779   7.8572E-03 -5.4600E-03  9.5680E-03  -34.796
    14    1  -0.4810   0.0000   0.0973  0.02779   7.1905E-03 -5.2182E-03  8.8844E-03  -35.969
    15    1  -0.4810   0.0000   0.1251  0.02779   6.3262E-03 -4.7615E-03  7.9179E-03  -36.968
    16    1  -0.4810   0.0000   0.1528  0.02779   5.2827E-03 -4.1043E-03  6.6897E-03  -37.844
    17    1  -0.4810   0.0000   0.1806  0.02779   4.0785E-03 -3.2597E-03  5.2211E-03  -38.634
    18    1  -0.4810   0.0000   0.2084  0.02779   2.7259E-03 -2.2359E-03  3.5256E-03  -39.361
    19    1  -0.4810   0.0000   0.2362  0.02779   1.1451E-03 -9.6185E-04  1.4955E-03  -40.029



                                        - - - POWER BUDGET - - -

                                           INPUT POWER   = 4.2735E-03 WATTS
                                           RADIATED POWER= 4.2735E-03 WATTS
                                           STRUCTURE LOSS= 0.0000E+00 WATTS
                                           NETWORK LOSS  = 0.0000E+00 WATTS
                                           EFFICIENCY    = 100.00 PERCENT



                                                - - - RADIATION PATTERNS - - -

  - - ANGLES - -           - POWER GAINS -       - - - POLARIZATION - - -    - - - E(THETA) - - -    - - - E(PHI) - - -
  THETA     PHI        VERT.   HOR.    TOTAL      AXIAL     TILT   SENSE     MAGNITUDE    PHASE      MAGNITUDE    PHASE 
 DEGREES  DEGREES       DB      DB      DB        RATIO     DEG.              VOLTS/M    DEGREES      VOLTS/M    DEGREES
    0.00     0.00    -999.99 -999.99 -999.99    0.00000     0.00            0.00000E+00     0.00    0.00000E+00     0.00
    5.00     0.00     -21.22 -999.99  -21.22    0.00000     0.00  LINEAR    4.40036E-02    41.38    0.00000E+00     0.00
   10.00     0.00     -15.18 -999.99  -15.18    0.00000     0.00  LINEAR    8.82177E-02    26.38    0.00000E+00     0.00
   15.00     0.00     -11.62 -999.99  -11.62    0.00000     0.00  LINEAR    1.32821E-01    11.59    0.00000E+00     0.00
   20.00     0.00      -9.08 -999.99   -9.08    0.00000     0.00  LINEAR    1.77931E-01    -2.87    0.00000E+00     0.00
   25.00     0.00      -7.10 -999.99   -7.10    0.00000     0.00  LINEAR    2.23573E-01   -16.89    0.00000E+00     0.00
   30.00     0.00      -5.47 -999.99   -5.47    0.00000     0.00  LINEAR    2.69656E-01   -30.36    0.00000E+00     0.00
   35.00     0.00      -4.09 -999.99   -4.09    0.00000     0.00  LINEAR    3.15956E-01   -43.18    0.00000E+00     0.00
   40.00     0.00      -2.91 -999.99   -2.91    0.00000     0.00  LINEAR    3.62099E-01   -55.26    0.00000E+00     0.00
   45.00     0.00      -1.88 -999.99   -1.88    0.00000     0.00  LINEAR    4.07560E-01   -66.48    0.00000E+00     0.00
   50.00     0.00      -0.99 -999.99   -0.99    0.00000     0.00  LINEAR    4.51668E-01   -76.77    0.00000E+00     0.00
   55.00     0.00      -0.22 -999.99   -0.22    0.00000     0.00  LINEAR    4.93630E-01   -86.05    0.00000E+00     0.00
   60.00     0.00       0.44 -999.99    0.44    0.00000     0.00  LINEAR    5.32560E-01   -94.25    0.00000E+00     0.00
   65.00     0.00       0.99 -999.99    0.99    0.00000     0.00  LINEAR    5.67525E-01  -101.30    0.00000E+00     0.00
   70.00     0.00       1.44 -999.99    1.44    0.00000     0.00  LINEAR    5.97595E-01  -107.15    0.00000E+00     0.00
   75.00     0.00       1.79 -999.99    1.79    0.00000     0.00  LINEAR    6.21903E-01  -111.75    0.00000E+00     0.00
   80.00     0.00       2.03 -999.99    2.03    0.00000     0.00  LINEAR    6.39705E-01  -115.07    0.00000E+00     0.00
   85.00     0.00       2.18 -999.99    2.18    0.00000     0.00  LINEAR    6.50431E-01  -117.09    0.00000E+00     0.00
   90.00     0.00       2.22 -999.99    2.22    0.00000     0.00  LINEAR    6.53727E-01  -117.78    0.00000E+00     0.00
   95.00     0.00       2.16 -999.99    2.16    0.00000     0.00  LINEAR    6.49483E-01  -117.14    0.00000E+00     0.00
  100.00     0.00       2.01 -999.99    2.01    0.00000     0.00  LINEAR    6.37843E-01  -115.18    0.00000E+00     0.00
  105.00     0.00       1.75 -999.99    1.75    0.00000     0.00  LINEAR    6.19193E-01  -111.91    0.00000E+00     0.00
  110.00     0.00       1.39 -999.99    1.39    0.00000     0.00  LINEAR    5.94133E-01  -107.36    0.00000E+00     0.00
  115.00     0.00       0.93 -999.99    0.93    0.00000     0.00  LINEAR    5.63432E-01  -101.57    0.00000E+00     0.00
  120.00     0.00       0.37 -999.99    0.37    0.00000     0.00  LINEAR    5.27976E-01   -94.57    0.00000E+00     0.00
  125.00     0.00      -0.31 -999.99   -0.31    0.00000     0.00  LINEAR    4.88705E-01   -86.42    0.00000E+00     0.00
  130.00     0.00      -1.09 -999.99   -1.09    0.00000     0.00  LINEAR    4.46562E-01   -77.19    0.00000E+00     0.00
  135.00     0.00      -1.99 -999.99   -1.99    0.00000     0.00  LINEAR    4.02432E-01   -66.94    0.00000E+00     0.00
  140.00     0.00      -3.03 -999.99   -3.03    0.00000     0.00  LINEAR    3.57106E-01   -55.76    0.00000E+00     0.00
  145.00     0.00      -4.22 -999.99   -4.22    0.00000     0.00  LINEAR    3.11242E-01   -43.73    0.00000E+00     0.00
  150.00     0.00      -5.61 -999.99   -5.61    0.00000     0.00  LINEAR    2.65355E-01   -30.94    0.00000E+00     0.00
  155.00     0.00      -7.25 -999.99   -7.25    0.00000     0.00  LINEAR    2.19802E-01   -17.50    0.00000E+00     0.00
  160.00     0.00      -9.24 -999.99   -9.24    0.00000     0.00  LINEAR    1.74792E-01    -3.51    0.00000E+00     0.00
  165.00     0.00     -11.78 -999.99  -11.78    0.00000     0.00  LINEAR    1.30395E-01    10.93    0.00000E+00     0.00
  170.00     0.00     -15.34 -999.99  -15.34    0.00000     0.00  LINEAR    8.65659E-02    25.70    0.00000E+00     0.00
  175.00     0.00     -21.38 -999.99  -21.38    0.00000     0.00  LINEAR    4.31673E-02    40.69    0.00000E+00     0.00
  180.00     0.00    -999.99 -999.99 -999.99    0.00000     0.00            5.04429E-12  -124.21    0.00000E+00     0.00
    0.00    10.00    -999.99 -999.99 -999.99    0.00000     0.00            0.00000E+00     0.00    0.00000E+00     0.00
    5.00    10.00     -21.22 -999.99  -21.22    0.00000     0.00  LINEAR    4.40036E-02    41.61    0.00000E+00     0.00
   10.00    10.00     -15.18 -999.99  -15.18    0.00000     0.00  LINEAR    8.82177E-02    26.84    0.00000E+00     0.00
   15.00    10.00     -11.62 -999.99  -11.62    0.00000     0.00  LINEAR    1.32821E-01    12.27    0.00000E+00     0.00
   20.00    10.00      -9.08 -999.99   -9.08    0.00000     0.00  LINEAR    1.77931E-01    -1.97    0.00000E+00     0.00
   25.00    10.00      -7.10 -999.99   -7.10    0.00000     0.00  LINEAR    2.23573E-01   -15.78    0.00000E+00     0.00
   30.00    10.00      -5.47 -999.99   -5.47    0.00000     0.00  LINEAR    2.69656E-01   -29.05    0.00000E+00     0.00
   35.00    10.00      -4.09 -999.99   -4.09    0.00000     0.00  LINEAR    3.15956E-01   -41.68    0.00000E+00     0.00
   40.00    10.00      -2.91 -999.99   -2.91    0.00000     0.00  LINEAR    3.62099E-01   -53.56    0.00000E+00     0.00
   45.00    10.00      -1.88 -999.99   -1.88    0.00000     0.00  LINEAR    4.07560E-01   -64.62    0.00000E+00     0.00
   50.00    10.00      -0.99 -999.99   -0.99    0.00000     0.00  LINEAR    4.51668E-01   -74.76    0.00000E+00     0.00
   55.00    10.00      -0.22 -999.99   -0.22    0.00000     0.00  LINEAR    4.93630E-01   -83.90    0.00000E+00     0.00
   60.00    10.00       0.44 -999.99    0.44    0.00000     0.00  LINEAR    5.32560E-01   -91.97    0.00000E+00     0.00
   65.00    10.00       0.99 -999.99    0.99    0.00000     0.00  LINEAR    5.67525E-01   -98.92    0.00000E+00     0.00
   70.00    10.00       1.44 -999.99    1.44    0.00000     0.00  LINEAR    5.97595E-01  -104.68    0.00000E+00     0.00
   75.00    10.00       1.79 -999.99    1.79    0.00000     0.00  LINEAR    6.21903E-01  -109.21    0.00000E+00     0.00
   80.00    10.00       2.03 -999.99    2.03    0.00000     0.00  LINEAR    6.39705E-01  -112.48    0.00000E+00     0.00
   85.00    10.00       2.18 -999.99    2.18    0.00000     0.00  LINEAR    6.50431E-01  -114.47    0.00000E+00     0.00
   90.00    10.00       2.22 -999.99    2.22    0.00000     0.00  LINEAR    6.53727E-01  -115.15    0.00000E+00     0.00
   95.00    10.00       2.16 -999.99    2.16    0.00000     0.00  LINEAR    6.49483E-01  -114.52    0.00000E+00     0.00
  100.00    10.00       2.01 -999.99    2.01    0.00000     0.00  LINEAR    6.37843E-01  -112.59    0.00000E+00     0.00
  105.00    10.00       1.75 -999.99    1.75    0.00000     0.00  LINEAR    6.19193E-01  -109.37    0.00000E+00     0.00
  110.00    10.00       1.39 -999.99    1.39    0.00000     0.00  LINEAR    5.94133E-01  -104.89    0.00000E+00     0.00
  115.00    10.00       0.93 -999.99    0.93    0.00000     0.00  LINEAR    5.63432E-01   -99.18    0.00000E+00     0.00
  120.00    10.00       0.37 -999.99    0.37    0.00000     0.00  LINEAR    5.27976E-01   -92.29    0.00000E+00     0.00
  125.00    10.00      -0.31 -999.99   -0.31    0.00000     0.00  LINEAR    4.88705E-01   -84.26    0.00000E+00     0.00
  130.00    10.00      -1.09 -999.99   -1.09    0.00000     0.00  LINEAR    4.46562E-01   -75.17    0.00000E+00     0.00
  135.00    10.00      -1.99 -999.99   -1.99    0.00000     0.00  LINEAR    4.02432E-01   -65.08    0.00000E+00     0.00
  140.00    10.00      -3.03 -999.99   -3.03    0.00000     0.00  LINEAR    3.57106E-01   -54.07    0.00000E+00     0.00
  145.00    10.00      -4.22 -999.99   -4.22    0.00000     0.00  LINEAR    3.11242E-01   -42.22    0.00000E+00     0.00
  150.00    10.00      -5.61 -999.99   -5.61    0.00000     0.00  LINEAR    2.65355E-01   -29.63    0.00000E+00     0.00
  155.00    10.00      -7.25 -999.99   -7.25    0.00000     0.00  LINEAR    2.19802E-01   -16.39    0.00000E+00     0.00
  160.00    10.00      -9.24 -999.99   -9.24    0.00000     0.00  LINEAR    1.74792E-01    -2.61    0.00000E+00     0.00
  165.00    10.00     -11.78 -999.99  -11.78    0.00000     0.00  LINEAR    1.30395E-01    11.61    0.00000E+00     0.00
  170.00    10.00     -15.34 -999.99  -15.34    0.00000     0.00  LINEAR    8.65659E-02    26.16    0.00000E+00     0.00
  175.00    10.00     -21.38 -999.99  -21.38    0.00000     0.00  LINEAR    4.31673E-02    40.92    0.00000E+00     0.00
  180.00    10.00    -999.99 -999.99 -999.99    0.00000     0.00            5.04429E-12  -124.21    0.00000E+00     0.00
    0.00    20.00    -999.99 -999.99 -999.99    0.00000     0.00            0.00000E+00     0.00    0.00000E+00     0.00
    5.00    20.00     -21.22 -999.99  -21.22    0.00000     0.00  LINEAR    4.40036E-02    42.29    0.00000E+00     0.00
   10.00    20.00     -15.18 -999.99  -15.18    0.00000     0.00  LINEAR    8.82177E-02    28.19    0.00000E+00     0.00
   15.00    20.00     -11.62 -999.99  -11.62    0.00000     0.00  LINEAR    1.32821E-01    14.30    0.00000E+00     0.00
   20.00    20.00      -9.08 -999.99   -9.08    0.00000     0.00  LINEAR    1.77931E-01     0.70    0.00000E+00     0.00
   25.00    20.00      -7.10 -999.99   -7.10    0.00000     0.00  LINEAR    2.23573E-01   -12.48    0.00000E+00     0.00
   30.00    20.00      -5.47 -999.99   -5.47    0.00000     0.00  LINEAR    2.69656E-01   -25.14    0.00000E+00     0.00
   35.00    20.00      -4.09 -999.99   -4.09    0.00000     0.00  LINEAR    3.15956E-01   -37.20    0.00000E+00     0.00
   40.00    20.00      -2.91 -999.99   -2.91    0.00000     0.00  LINEAR    3.62099E-01   -48.54    0.00000E+00     0.00
   45.00    20.00      -1.88 -999.99   -1.88    0.00000     0.00  LINEAR    4.07560E-01   -59.10    0.00000E+00     0.00
   50.00    20.00      -0.99 -999.99   -0.99    0.00000     0.00  LINEAR    4.51668E-01   -68.77    0.00000E+00     0.00
   55.00    20.00      -0.22 -999.99   -0.22    0.00000     0.00  LINEAR    4.93630E-01   -77.50    0.00000E+00     0.00
   60.00    20.00       0.44 -999.99    0.44    0.00000     0.00  LINEAR    5.32560E-01   -85.21    0.00000E+00     0.00
   65.00    20.00       0.99 -999.99    0.99    0.00000     0.00  LINEAR    5.67525E-01   -91.84    0.00000E+00     0.00
   70.00    20.00       1.44 -999.99    1.44    0.00000     0.00  LINEAR    5.97595E-01   -97.34    0.00000E+00     0.00
   75.00    20.00       1.79 -999.99    1.79    0.00000     0.00  LINEAR    6.21903E-01  -101.67    0.00000E+00     0.00
   80.00    20.00       2.03 -999.99    2.03    0.00000     0.00  LINEAR    6.39705E-01  -104.79    0.00000E+00     0.00
   85.00    20.00       2.18 -999.99    2.18    0.00000     0.00  LINEAR    6.50431E-01  -106.68    0.00000E+00     0.00
   90.00    20.00       2.22 -999.99    2.22    0.00000     0.00  LINEAR    6.53727E-01  -107.33    0.00000E+00     0.00
   95.00    20.00       2.16 -999.99    2.16    0.00000     0.00  LINEAR    6.49483E-01  -106.74    0.00000E+00     0.00
  100.00    20.00       2.01 -999.99    2.01    0.00000     0.00  LINEAR    6.37843E-01  -104.90    0.00000E+00     0.00
  105.00    20.00       1.75 -999.99    1.75    0.00000     0.00  LINEAR    6.19193E-01  -101.83    0.00000E+00     0.00
  110.00    20.00       1.39 -999.99    1.39    0.00000     0.00  LINEAR    5.94133E-01   -97.55    0.00000E+00     0.00
  115.00    20.00       0.93 -999.99    0.93    0.00000     0.00  LINEAR    5.63432E-01   -92.10    0.00000E+00     0.00
  120.00    20.00       0.37 -999.99    0.37    0.00000     0.00  LINEAR    5.27976E-01   -85.52    0.00000E+00     0.00
  125.00    20.00      -0.31 -999.99   -0.31    0.00000     0.00  LINEAR    4.88705E-01   -77.87    0.00000E+00     0.00
  130.00    20.00      -1.09 -999.99   -1.09    0.00000     0.00  LINEAR    4.46562E-01   -69.19    0.00000E+00     0.00
  135.00    20.00      -1.99 -999.99   -1.99    0.00000     0.00  LINEAR    4.02432E-01   -59.56    0.00000E+00     0.00
  140.00    20.00      -3.03 -999.99   -3.03    0.00000     0.00  LINEAR    3.57106E-01   -49.05    0.00000E+00     0.00
  145.00    20.00      -4.22 -999.99   -4.22    0.00000     0.00  LINEAR    3.11242E-01   -37.74    0.00000E+00     0.00
  150.00    20.00      -5.61 -999.99   -5.61    0.00000     0.00  LINEAR    2.65355E-01   -25.72    0.00000E+00     0.00
  155.00    20.00      -7.25 -999.99   -7.25    0.00000     0.00  LINEAR    2.19802E-01   -13.09    0.00000E+00     0.00
  160.00    20.00      -9.24 -999.99   -9.24    0.00000     0.00  LINEAR    1.74792E-01     0.06    0.00000E+00     0.00
  165.00    20.00     -11.78 -999.99  -11.78    0.00000     0.00  LINEAR    1.30395E-01    13.63    0.00000E+00     0.00
  170.00    20.00     -15.34 -999.99  -15.34    0.00000     0.00  LINEAR    8.65659E-02    27.52    0.00000E+00     0.00
  175.00    20.00     -21.38 -999.99  -21.38    0.00000     0.00  LINEAR    4.31673E-02    41.60    0.00000E+00     0.00
  180.00    20.00    -999.99 -999.99 -999.99    0.00000     0.00            5.04429E-12  -124.21    0.00000E+00     0.00
    0.00    30.00    -999.99 -999.99 -999.99    0.00000     0.00            0.00000E+00     0.00    0.00000E+00     0.00
    5.00    30.00     -21.22 -999.99  -21.22    0.00000     0.00  LINEAR    4.40036E-02    43.40    0.00000E+00     0.00
   10.00    30.00     -15.18 -999.99  -15.18    0.00000     0.00  LINEAR    8.82177E-02    30.41    0.00000E+00     0.00
   15.00    30.00     -11.62 -999.99  -11.62    0.00000     0.00  LINEAR    1.32821E-01    17.60    0.00000E+00     0.00
   20.00    30.00      -9.08 -999.99   -9.08    0.00000     0.00  LINEAR    1.77931E-01     5.07    0.00000E+00     0.00
   25.00    30.00      -7.10 -999.99   -7.10    0.00000     0.00  LINEAR    2.23573E-01    -7.08    0.00000E+00     0.00
   30.00    30.00      -5.47 -999.99   -5.47    0.00000     0.00  LINEAR    2.69656E-01   -18.76    0.00000E+00     0.00
   35.00    30.00      -4.09 -999.99   -4.09    0.00000     0.00  LINEAR    3.15956E-01   -29.88    0.00000E+00     0.00
   40.00    30.00      -2.91 -999.99   -2.91    0.00000     0.00  LINEAR    3.62099E-01   -40.34    0.00000E+00     0.00
   45.00    30.00      -1.88 -999.99   -1.88    0.00000     0.00  LINEAR    4.07560E-01   -50.08    0.00000E+00     0.00
   50.00    30.00      -0.99 -999.99   -0.99    0.00000     0.00  LINEAR    4.51668E-01   -59.00    0.00000E+00     0.00
   55.00    30.00      -0.22 -999.99   -0.22    0.00000     0.00  LINEAR    4.93630E-01   -67.05    0.00000E+00     0.00
   60.00    30.00       0.44 -999.99    0.44    0.00000     0.00  LINEAR    5.32560E-01   -74.16    0.00000E+00     0.00
   65.00    30.00       0.99 -999.99    0.99    0.00000     0.00  LINEAR    5.67525E-01   -80.28    0.00000E+00     0.00
   70.00    30.00       1.44 -999.99    1.44    0.00000     0.00  LINEAR    5.97595E-01   -85.35    0.00000E+00     0.00
   75.00    30.00       1.79 -999.99    1.79    0.00000     0.00  LINEAR    6.21903E-01   -89.35    0.00000E+00     0.00
   80.00    30.00       2.03 -999.99    2.03    0.00000     0.00  LINEAR    6.39705E-01   -92.23    0.00000E+00     0.00
   85.00    30.00       2.18 -999.99    2.18    0.00000     0.00  LINEAR    6.50431E-01   -93.98    0.00000E+00     0.00
   90.00    30.00       2.22 -999.99    2.22    0.00000     0.00  LINEAR    6.53727E-01   -94.58    0.00000E+00     0.00
   95.00    30.00       2.16 -999.99    2.16    0.00000     0.00  LINEAR    6.49483E-01   -94.03    0.00000E+00     0.00
  100.00    30.00       2.01 -999.99    2.01    0.00000     0.00  LINEAR    6.37843E-01   -92.33    0.00000E+00     0.00
  105.00    30.00       1.75 -999.99    1.75    0.00000     0.00  LINEAR    6.19193E-01   -89.50    0.00000E+00     0.00
  110.00    30.00       1.39 -999.99    1.39    0.00000     0.00  LINEAR    5.94133E-01   -85.56    0.00000E+00     0.00
  115.00    30.00       0.93 -999.99    0.93    0.00000     0.00  LINEAR    5.63432E-01   -80.54    0.00000E+00     0.00
  120.00    30.00       0.37 -999.99    0.37    0.00000     0.00  LINEAR    5.27976E-01   -74.48    0.00000E+00     0.00
  125.00    30.00      -0.31 -999.99   -0.31    0.00000     0.00  LINEAR    4.88705E-01   -67.42    0.00000E+00     0.00
  130.00    30.00      -1.09 -999.99   -1.09    0.00000     0.00  LINEAR    4.46562E-01   -59.42    0.00000E+00     0.00
  135.00    30.00      -1.99 -999.99   -1.99    0.00000     0.00  LINEAR    4.02432E-01   -50.54    0.00000E+00     0.00
  140.00    30.00      -3.03 -999.99   -3.03    0.00000     0.00  LINEAR    3.57106E-01   -40.85    0.00000E+00     0.00
  145.00    30.00      -4.22 -999.99   -4.22    0.00000     0.00  LINEAR    3.11242E-01   -30.42    0.00000E+00     0.00
  150.00    30.00      -5.61 -999.99   -5.61    0.00000     0.00  LINEAR    2.65355E-01   -19.34    0.00000E+00     0.00
  155.00    30.00      -7.25 -999.99   -7.25    0.00000     0.00  LINEAR    2.19802E-01    -7.70    0.00000E+00     0.00
  160.00    30.00      -9.24 -999.99   -9.24    0.00000     0.00  LINEAR    1.74792E-01     4.43    0.00000E+00     0.00
  165.00    30.00     -11.78 -999.99  -11.78    0.00000     0.00  LINEAR    1.30395E-01    16.93    0.00000E+00     0.00
  170.00    30.00     -15.34 -999.99  -15.34    0.00000     0.00  LINEAR    8.65659E-02    29.73    0.00000E+00     0.00
  175.00    30.00     -21.38 -999.99  -21.38    0.00000     0.00  LINEAR    4.31673E-02    42.72    0.00000E+00     0.00
  180.00    30.00    -999.99 -999.99 -999.99    0.00000     0.00            5.04429E-12  -124.21    0.00000E+00     0.00
    0.00    40.00    -999.99 -999.99 -999.99    0.00000     0.00            0.00000E+00     0.00    0.00000E+00     0.00
    5.00    40.00     -21.22 -999.99  -21.22    0.00000     0.00  LINEAR    4.40036E-02    44.91    0.00000E+00     0.00
   10.00    40.00     -15.18 -999.99  -15.18    0.00000     0.00  LINEAR    8.82177E-02    33.42    0.00000E+00     0.00
   15.00    40.00     -11.62 -999.99  -11.62    0.00000     0.00  LINEAR    1.32821E-01    22.08    0.00000E+00     0.00
   20.00    40.00      -9.08 -999.99   -9.08    0.00000     0.00  LINEAR    1.77931E-01    10.99    0.00000E+00     0.00
   25.00    40.00      -7.10 -999.99   -7.10    0.00000     0.00  LINEAR    2.23573E-01     0.23    0.00000E+00     0.00
   30.00    40.00      -5.47 -999.99   -5.47    0.00000     0.00  LINEAR    2.69656E-01   -10.11    0.00000E+00     0.00
   35.00    40.00      -4.09 -999.99   -4.09    0.00000     0.00  LINEAR    3.15956E-01   -19.95    0.00000E+00     0.00
   40.00    40.00      -2.91 -999.99   -2.91    0.00000     0.00  LINEAR    3.62099E-01   -29.22    0.00000E+00     0.00
   45.00    40.00      -1.88 -999.99   -1.88    0.00000     0.00  LINEAR    4.07560E-01   -37.84    0.00000E+00     0.00
   50.00    40.00      -0.99 -999.99   -0.99    0.00000     0.00  LINEAR    4.51668E-01   -45.74    0.00000E+00     0.00
   55.00    40.00      -0.22 -999.99   -0.22    0.00000     0.00  LINEAR    4.93630E-01   -52.87    0.00000E+00     0.00
   60.00    40.00       0.44 -999.99    0.44    0.00000     0.00  LINEAR    5.32560E-01   -59.17    0.00000E+00     0.00
   65.00    40.00       0.99 -999.99    0.99    0.00000     0.00  LINEAR    5.67525E-01   -64.59    0.00000E+00     0.00
   70.00    40.00       1.44 -999.99    1.44    0.00000     0.00  LINEAR    5.97595E-01   -69.08    0.00000E+00     0.00
   75.00    40.00       1.79 -999.99    1.79    0.00000     0.00  LINEAR    6.21903E-01   -72.62    0.00000E+00     0.00
   80.00    40.00       2.03 -999.99    2.03    0.00000     0.00  LINEAR    6.39705E-01   -75.18    0.00000E+00     0.00
   85.00    40.00       2.18 -999.99    2.18    0.00000     0.00  LINEAR    6.50431E-01   -76.73    0.00000E+00     0.00
   90.00    40.00       2.22 -999.99    2.22    0.00000     0.00  LINEAR    6.53727E-01   -77.27    0.00000E+00     0.00
   95.00    40.00       2.16 -999.99    2.16    0.00000     0.00  LINEAR    6.49483E-01   -76.78    0.00000E+00     0.00
  100.00    40.00       2.01 -999.99    2.01    0.00000     0.00  LINEAR    6.37843E-01   -75.28    0.00000E+00     0.00
  105.00    40.00       1.75 -999.99    1.75    0.00000     0.00  LINEAR    6.19193E-01   -72.78    0.00000E+00     0.00
  110.00    40.00       1.39 -999.99    1.39    0.00000     0.00  LINEAR    5.94133E-01   -69.30    0.00000E+00     0.00
  115.00    40.00       0.93 -999.99    0.93    0.00000     0.00  LINEAR    5.63432E-01   -64.85    0.00000E+00     0.00
  120.00    40.00       0.37 -999.99    0.37    0.00000     0.00  LINEAR    5.27976E-01   -59.48    0.00000E+00     0.00
  125.00    40.00      -0.31 -999.99   -0.31    0.00000     0.00  LINEAR    4.88705E-01   -53.24    0.00000E+00     0.00
  130.00    40.00      -1.09 -999.99   -1.09    0.00000     0.00  LINEAR    4.46562E-01   -46.15    0.00000E+00     0.00
  135.00    40.00      -1.99 -999.99   -1.99    0.00000     0.00  LINEAR    4.02432E-01   -38.29    0.00000E+00     0.00
  140.00    40.00      -3.03 -999.99   -3.03    0.00000     0.00  LINEAR    3.57106E-01   -29.72    0.00000E+00     0.00
  145.00    40.00      -4.22 -999.99   -4.22    0.00000     0.00  LINEAR    3.11242E-01   -20.49    0.00000E+00     0.00
  150.00    40.00      -5.61 -999.99   -5.61    0.00000     0.00  LINEAR    2.65355E-01   -10.69    0.00000E+00     0.00
  155.00    40.00      -7.25 -999.99   -7.25    0.00000     0.00  LINEAR    2.19802E-01    -0.38    0.00000E+00     0.00
  160.00    40.00      -9.24 -999.99   -9.24    0.00000     0.00  LINEAR    1.74792E-01    10.35    0.00000E+00     0.00
  165.00    40.00     -11.78 -999.99  -11.78    0.00000     0.00  LINEAR    1.30395E-01    21.42    0.00000E+00     0.00
  170.00    40.00     -15.34 -999.99  -15.34    0.00000     0.00  LINEAR    8.65659E-02    32.74    0.00000E+00     0.00
  175.00    40.00     -21.38 -999.99  -21.38    0.00000     0.00  LINEAR    4.31673E-02    44.22    0.00000E+00     0.00
  180.00    40.00    -999.99 -999.99 -999.99    0.00000     0.00            5.04429E-12  -124.21    0.00000E+00     0.00
    0.00    50.00    -999.99 -999.99 -999.99    0.00000     0.00            0.00000E+00     0.00    0.00000E+00     0.00
    5.00    50.00     -21.22 -999.99  -21.22    0.00000     0.00  LINEAR    4.40036E-02    46.77    0.00000E+00     0.00
   10.00    50.00     -15.18 -999.99  -15.18    0.00000     0.00  LINEAR    8.82177E-02    37.12    0.00000E+00     0.00
   15.00    50.00     -11.62 -999.99  -11.62    0.00000     0.00  LINEAR    1.32821E-01    27.60    0.00000E+00     0.00
   20.00    50.00      -9.08 -999.99   -9.08    0.00000     0.00  LINEAR    1.77931E-01    18.29    0.00000E+00     0.00
   25.00    50.00      -7.10 -999.99   -7.10    0.00000     0.00  LINEAR    2.23573E-01     9.25    0.00000E+00     0.00
   30.00    50.00      -5.47 -999.99   -5.47    0.00000     0.00  LINEAR    2.69656E-01     0.56    0.00000E+00     0.00
   35.00    50.00      -4.09 -999.99   -4.09    0.00000     0.00  LINEAR    3.15956E-01    -7.71    0.00000E+00     0.00
   40.00    50.00      -2.91 -999.99   -2.91    0.00000     0.00  LINEAR    3.62099E-01   -15.50    0.00000E+00     0.00
   45.00    50.00      -1.88 -999.99   -1.88    0.00000     0.00  LINEAR    4.07560E-01   -22.74    0.00000E+00     0.00
   50.00    50.00      -0.99 -999.99   -0.99    0.00000     0.00  LINEAR    4.51668E-01   -29.39    0.00000E+00     0.00
   55.00    50.00      -0.22 -999.99   -0.22    0.00000     0.00  LINEAR    4.93630E-01   -35.39    0.00000E+00     0.00
   60.00    50.00       0.44 -999.99    0.44    0.00000     0.00  LINEAR    5.32560E-01   -40.69    0.00000E+00     0.00
   65.00    50.00       0.99 -999.99    0.99    0.00000     0.00  LINEAR    5.67525E-01   -45.24    0.00000E+00     0.00
   70.00    50.00       1.44 -999.99    1.44    0.00000     0.00  LINEAR    5.97595E-01   -49.03    0.00000E+00     0.00
   75.00    50.00       1.79 -999.99    1.79    0.00000     0.00  LINEAR    6.21903E-01   -52.01    0.00000E+00     0.00
   80.00    50.00       2.03 -999.99    2.03    0.00000     0.00  LINEAR    6.39705E-01   -54.16    0.00000E+00     0.00
   85.00    50.00       2.18 -999.99    2.18    0.00000     0.00  LINEAR    6.50431E-01   -55.47    0.00000E+00     0.00
   90.00    50.00       2.22 -999.99    2.22    0.00000     0.00  LINEAR    6.53727E-01   -55.92    0.00000E+00     0.00
   95.00    50.00       2.16 -999.99    2.16    0.00000     0.00  LINEAR    6.49483E-01   -55.52    0.00000E+00     0.00
  100.00    50.00       2.01 -999.99    2.01    0.00000     0.00  LINEAR    6.37843E-01   -54.27    0.00000E+00     0.00
  105.00    50.00       1.75 -999.99    1.75    0.00000     0.00  LINEAR    6.19193E-01   -52.17    0.00000E+00     0.00
  110.00    50.00       1.39 -999.99    1.39    0.00000     0.00  LINEAR    5.94133E-01   -49.24    0.00000E+00     0.00
  115.00    50.00       0.93 -999.99    0.93    0.00000     0.00  LINEAR    5.63432E-01   -45.51    0.00000E+00     0.00
  120.00    50.00       0.37 -999.99    0.37    0.00000     0.00  LINEAR    5.27976E-01   -41.00    0.00000E+00     0.00
  125.00    50.00      -0.31 -999.99   -0.31    0.00000     0.00  LINEAR    4.88705E-01   -35.75    0.00000E+00     0.00
  130.00    50.00      -1.09 -999.99   -1.09    0.00000     0.00  LINEAR    4.46562E-01   -29.80    0.00000E+00     0.00
  135.00    50.00      -1.99 -999.99   -1.99    0.00000     0.00  LINEAR    4.02432E-01   -23.20    0.00000E+00     0.00
  140.00    50.00      -3.03 -999.99   -3.03    0.00000     0.00  LINEAR    3.57106E-01   -16.00    0.00000E+00     0.00
  145.00    50.00      -4.22 -999.99   -4.22    0.00000     0.00  LINEAR    3.11242E-01    -8.25    0.00000E+00     0.00
  150.00    50.00      -5.61 -999.99   -5.61    0.00000     0.00  LINEAR    2.65355E-01    -0.02    0.00000E+00     0.00
  155.00    50.00      -7.25 -999.99   -7.25    0.00000     0.00  LINEAR    2.19802E-01     8.64    0.00000E+00     0.00
  160.00    50.00      -9.24 -999.99   -9.24    0.00000     0.00  LINEAR    1.74792E-01    17.65    0.00000E+00     0.00
  165.00    50.00     -11.78 -999.99  -11.78    0.00000     0.00  LINEAR    1.30395E-01    26.94    0.00000E+00     0.00
  170.00    50.00     -15.34 -999.99  -15.34    0.00000     0.00  LINEAR    8.65659E-02    36.44    0.00000E+00     0.00
  175.00    50.00     -21.38 -999.99  -21.38    0.00000     0.00  LINEAR    4.31673E-02    46.08    0.00000E+00     0.00
  180.00    50.00    -999.99 -999.99 -999.99    0.00000     0.00            5.04429E-12  -124.21    0.00000E+00     0.00
    0.00    60.00    -999.99 -999.99 -999.99    0.00000     0.00            0.00000E+00     0.00    0.00000E+00     0.00
    5.00    60.00     -21.22 -999.99  -21.22    0.00000     0.00  LINEAR    4.40036E-02    48.93    0.00000E+00     0.00
   10.00    60.00     -15.18 -999.99  -15.18    0.00000     0.00  LINEAR    8.82177E-02    41.41    0.00000E+00     0.00
   15.00    60.00     -11.62 -999.99  -11.62    0.00000     0.00  LINEAR    1.32821E-01    34.00    0.00000E+00     0.00
   20.00    60.00      -9.08 -999.99   -9.08    0.00000     0.00  LINEAR    1.77931E-01    26.74    0.00000E+00     0.00
   25.00    60.00      -7.10 -999.99   -7.10    0.00000     0.00  LINEAR    2.23573E-01    19.70    0.00000E+00     0.00
   30.00    60.00      -5.47 -999.99   -5.47    0.00000     0.00  LINEAR    2.69656E-01    12.93    0.00000E+00     0.00
   35.00    60.00      -4.09 -999.99   -4.09    0.00000     0.00  LINEAR    3.15956E-01     6.47    0.00000E+00     0.00
   40.00    60.00      -2.91 -999.99   -2.91    0.00000     0.00  LINEAR    3.62099E-01     0.40    0.00000E+00     0.00
   45.00    60.00      -1.88 -999.99   -1.88    0.00000     0.00  LINEAR    4.07560E-01    -5.26    0.00000E+00     0.00
   50.00    60.00      -0.99 -999.99   -0.99    0.00000     0.00  LINEAR    4.51668E-01   -10.45    0.00000E+00     0.00
   55.00    60.00      -0.22 -999.99   -0.22    0.00000     0.00  LINEAR    4.93630E-01   -15.13    0.00000E+00     0.00
   60.00    60.00       0.44 -999.99    0.44    0.00000     0.00  LINEAR    5.32560E-01   -19.27    0.00000E+00     0.00
   65.00    60.00       0.99 -999.99    0.99    0.00000     0.00  LINEAR    5.67525E-01   -22.84    0.00000E+00     0.00
   70.00    60.00       1.44 -999.99    1.44    0.00000     0.00  LINEAR    5.97595E-01   -25.79    0.00000E+00     0.00
   75.00    60.00       1.79 -999.99    1.79    0.00000     0.00  LINEAR    6.21903E-01   -28.13    0.00000E+00     0.00
   80.00    60.00       2.03 -999.99    2.03    0.00000     0.00  LINEAR    6.39705E-01   -29.81    0.00000E+00     0.00
   85.00    60.00       2.18 -999.99    2.18    0.00000     0.00  LINEAR    6.50431E-01   -30.84    0.00000E+00     0.00
   90.00    60.00       2.22 -999.99    2.22    0.00000     0.00  LINEAR    6.53727E-01   -31.20    0.00000E+00     0.00
   95.00    60.00       2.16 -999.99    2.16    0.00000     0.00  LINEAR    6.49483E-01   -30.89    0.00000E+00     0.00
  100.00    60.00       2.01 -999.99    2.01    0.00000     0.00  LINEAR    6.37843E-01   -29.92    0.00000E+00     0.00
  105.00    60.00       1.75 -999.99    1.75    0.00000     0.00  LINEAR    6.19193E-01   -28.29    0.00000E+00     0.00
  110.00    60.00       1.39 -999.99    1.39    0.00000     0.00  LINEAR    5.94133E-01   -26.01    0.00000E+00     0.00
  115.00    60.00       0.93 -999.99    0.93    0.00000     0.00  LINEAR    5.63432E-01   -23.10    0.00000E+00     0.00
  120.00    60.00       0.37 -999.99    0.37    0.00000     0.00  LINEAR    5.27976E-01   -19.59    0.00000E+00     0.00
  125.00    60.00      -0.31 -999.99   -0.31    0.00000     0.00  LINEAR    4.88705E-01   -15.50    0.00000E+00     0.00
  130.00    60.00      -1.09 -999.99   -1.09    0.00000     0.00  LINEAR    4.46562E-01   -10.86    0.00000E+00     0.00
  135.00    60.00      -1.99 -999.99   -1.99    0.00000     0.00  LINEAR    4.02432E-01    -5.72    0.00000E+00     0.00
  140.00    60.00      -3.03 -999.99   -3.03    0.00000     0.00  LINEAR    3.57106E-01    -0.11    0.00000E+00     0.00
  145.00    60.00      -4.22 -999.99   -4.22    0.00000     0.00  LINEAR    3.11242E-01     5.93    0.00000E+00     0.00
  150.00    60.00      -5.61 -999.99   -5.61    0.00000     0.00  LINEAR    2.65355E-01    12.35    0.00000E+00     0.00
  155.00    60.00      -7.25 -999.99   -7.25    0.00000     0.00  LINEAR    2.19802E-01    19.09    0.00000E+00     0.00
  160.00    60.00      -9.24 -999.99   -9.24    0.00000     0.00  LINEAR    1.74792E-01    26.10    0.00000E+00     0.00
  165.00    60.00     -11.78 -999.99  -11.78    0.00000     0.00  LINEAR    1.30395E-01    33.34    0.00000E+00     0.00
  170.00    60.00     -15.34 -999.99  -15.34    0.00000     0.00  LINEAR    8.65659E-02    40.74    0.00000E+00     0.00
  175.00    60.00     -21.38 -999.99  -21.38    0.00000     0.00  LINEAR    4.31673E-02    48.24    0.00000E+00     0.00
  180.00    60.00    -999.99 -999.99 -999.99    0.00000     0.00            5.04429E-12  -124.21    0.00000E+00     0.00
    0.00    70.00    -999.99 -999.99 -999.99    0.00000     0.00            0.00000E+00     0.00    0.00000E+00     0.00
    5.00    70.00     -21.22 -999.99  -21.22    0.00000     0.00  LINEAR    4.40036E-02    51.31    0.00000E+00     0.00
   10.00    70.00     -15.18 -999.99  -15.18    0.00000     0.00  LINEAR    8.82177E-02    46.16    0.00000E+00     0.00
   15.00    70.00     -11.62 -999.99  -11.62    0.00000     0.00  LINEAR    1.32821E-01    41.08    0.00000E+00     0.00
   20.00    70.00      -9.08 -999.99   -9.08    0.00000     0.00  LINEAR    1.77931E-01    36.10    0.00000E+00     0.00
   25.00    70.00      -7.10 -999.99   -7.10    0.00000     0.00  LINEAR    2.23573E-01    31.26    0.00000E+00     0.00
   30.00    70.00      -5.47 -999.99   -5.47    0.00000     0.00  LINEAR    2.69656E-01    26.60    0.00000E+00     0.00
   35.00    70.00      -4.09 -999.99   -4.09    0.00000     0.00  LINEAR    3.15956E-01    22.16    0.00000E+00     0.00
   40.00    70.00      -2.91 -999.99   -2.91    0.00000     0.00  LINEAR    3.62099E-01    17.98    0.00000E+00     0.00
   45.00    70.00      -1.88 -999.99   -1.88    0.00000     0.00  LINEAR    4.07560E-01    14.08    0.00000E+00     0.00
   50.00    70.00      -0.99 -999.99   -0.99    0.00000     0.00  LINEAR    4.51668E-01    10.50    0.00000E+00     0.00
   55.00    70.00      -0.22 -999.99   -0.22    0.00000     0.00  LINEAR    4.93630E-01     7.27    0.00000E+00     0.00
   60.00    70.00       0.44 -999.99    0.44    0.00000     0.00  LINEAR    5.32560E-01     4.42    0.00000E+00     0.00
   65.00    70.00       0.99 -999.99    0.99    0.00000     0.00  LINEAR    5.67525E-01     1.96    0.00000E+00     0.00
   70.00    70.00       1.44 -999.99    1.44    0.00000     0.00  LINEAR    5.97595E-01    -0.09    0.00000E+00     0.00
   75.00    70.00       1.79 -999.99    1.79    0.00000     0.00  LINEAR    6.21903E-01    -1.70    0.00000E+00     0.00
   80.00    70.00       2.03 -999.99    2.03    0.00000     0.00  LINEAR    6.39705E-01    -2.87    0.00000E+00     0.00
   85.00    70.00       2.18 -999.99    2.18    0.00000     0.00  LINEAR    6.50431E-01    -3.59    0.00000E+00     0.00
   90.00    70.00       2.22 -999.99    2.22    0.00000     0.00  LINEAR    6.53727E-01    -3.84    0.00000E+00     0.00
   95.00    70.00       2.16 -999.99    2.16    0.00000     0.00  LINEAR    6.49483E-01    -3.64    0.00000E+00     0.00
  100.00    70.00       2.01 -999.99    2.01    0.00000     0.00  LINEAR    6.37843E-01    -2.98    0.00000E+00     0.00
  105.00    70.00       1.75 -999.99    1.75    0.00000     0.00  LINEAR    6.19193E-01    -1.86    0.00000E+00     0.00
  110.00    70.00       1.39 -999.99    1.39    0.00000     0.00  LINEAR    5.94133E-01    -0.30    0.00000E+00     0.00
  115.00    70.00       0.93 -999.99    0.93    0.00000     0.00  LINEAR    5.63432E-01     1.69    0.00000E+00     0.00
  120.00    70.00       0.37 -999.99    0.37    0.00000     0.00  LINEAR    5.27976E-01     4.10    0.00000E+00     0.00
  125.00    70.00      -0.31 -999.99   -0.31    0.00000     0.00  LINEAR    4.88705E-01     6.91    0.00000E+00     0.00
  130.00    70.00      -1.09 -999.99   -1.09    0.00000     0.00  LINEAR    4.46562E-01    10.09    0.00000E+00     0.00
  135.00    70.00      -1.99 -999.99   -1.99    0.00000     0.00  LINEAR    4.02432E-01    13.62    0.00000E+00     0.00
  140.00    70.00      -3.03 -999.99   -3.03    0.00000     0.00  LINEAR    3.57106E-01    17.48    0.00000E+00     0.00
  145.00    70.00      -4.22 -999.99   -4.22    0.00000     0.00  LINEAR    3.11242E-01    21.62    0.00000E+00     0.00
  150.00    70.00      -5.61 -999.99   -5.61    0.00000     0.00  LINEAR    2.65355E-01    26.02    0.00000E+00     0.00
  155.00    70.00      -7.25 -999.99   -7.25    0.00000     0.00  LINEAR    2.19802E-01    30.65    0.00000E+00     0.00
  160.00    70.00      -9.24 -999.99   -9.24    0.00000     0.00  LINEAR    1.74792E-01    35.46    0.00000E+00     0.00
  165.00    70.00     -11.78 -999.99  -11.78    0.00000     0.00  LINEAR    1.30395E-01    40.42    0.00000E+00     0.00
  170.00    70.00     -15.34 -999.99  -15.34    0.00000     0.00  LINEAR    8.65659E-02    45.49    0.00000E+00     0.00
  175.00    70.00     -21.38 -999.99  -21.38    0.00000     0.00  LINEAR    4.31673E-02    50.62    0.00000E+00     0.00
  180.00    70.00    -999.99 -999.99 -999.99    0.00000     0.00            5.04429E-12  -124.21    0.00000E+00     0.00
    0.00    80.00    -999.99 -999.99 -999.99    0.00000     0.00            0.00000E+00     0.00    0.00000E+00     0.00
    5.00    80.00     -21.22 -999.99  -21.22    0.00000     0.00  LINEAR    4.40036E-02    53.85    0.00000E+00     0.00
   10.00    80.00     -15.18 -999.99  -15.18    0.00000     0.00  LINEAR    8.82177E-02    51.23    0.00000E+00     0.00
   15.00    80.00     -11.62 -999.99  -11.62    0.00000     0.00  LINEAR    1.32821E-01    48.63    0.00000E+00     0.00
   20.00    80.00      -9.08 -999.99   -9.08    0.00000     0.00  LINEAR    1.77931E-01    46.07    0.00000E+00     0.00
   25.00    80.00      -7.10 -999.99   -7.10    0.00000     0.00  LINEAR    2.23573E-01    43.58    0.00000E+00     0.00
   30.00    80.00      -5.47 -999.99   -5.47    0.00000     0.00  LINEAR    2.69656E-01    41.18    0.00000E+00     0.00
   35.00    80.00      -4.09 -999.99   -4.09    0.00000     0.00  LINEAR    3.15956E-01    38.89    0.00000E+00     0.00
   40.00    80.00      -2.91 -999.99   -2.91    0.00000     0.00  LINEAR    3.62099E-01    36.72    0.00000E+00     0.00
   45.00    80.00      -1.88 -999.99   -1.88    0.00000     0.00  LINEAR    4.07560E-01    34.70    0.00000E+00     0.00
   50.00    80.00      -0.99 -999.99   -0.99    0.00000     0.00  LINEAR    4.51668E-01    32.84    0.00000E+00     0.00
   55.00    80.00      -0.22 -999.99   -0.22    0.00000     0.00  LINEAR    4.93630E-01    31.16    0.00000E+00     0.00
   60.00    80.00       0.44 -999.99    0.44    0.00000     0.00  LINEAR    5.32560E-01    29.67    0.00000E+00     0.00
   65.00    80.00       0.99 -999.99    0.99    0.00000     0.00  LINEAR    5.67525E-01    28.38    0.00000E+00     0.00
   70.00    80.00       1.44 -999.99    1.44    0.00000     0.00  LINEAR    5.97595E-01    27.31    0.00000E+00     0.00
   75.00    80.00       1.79 -999.99    1.79    0.00000     0.00  LINEAR    6.21903E-01    26.46    0.00000E+00     0.00
   80.00    80.00       2.03 -999.99    2.03    0.00000     0.00  LINEAR    6.39705E-01    25.84    0.00000E+00     0.00
   85.00    80.00       2.18 -999.99    2.18    0.00000     0.00  LINEAR    6.50431E-01    25.46    0.00000E+00     0.00
   90.00    80.00       2.22 -999.99    2.22    0.00000     0.00  LINEAR    6.53727E-01    25.31    0.00000E+00     0.00
   95.00    80.00       2.16 -999.99    2.16    0.00000     0.00  LINEAR    6.49483E-01    25.40    0.00000E+00     0.00
  100.00    80.00       2.01 -999.99    2.01    0.00000     0.00  LINEAR    6.37843E-01    25.73    0.00000E+00     0.00
  105.00    80.00       1.75 -999.99    1.75    0.00000     0.00  LINEAR    6.19193E-01    26.30    0.00000E+00     0.00
  110.00    80.00       1.39 -999.99    1.39    0.00000     0.00  LINEAR    5.94133E-01    27.10    0.00000E+00     0.00
  115.00    80.00       0.93 -999.99    0.93    0.00000     0.00  LINEAR    5.63432E-01    28.11    0.00000E+00     0.00
  120.00    80.00       0.37 -999.99    0.37    0.00000     0.00  LINEAR    5.27976E-01    29.35    0.00000E+00     0.00
  125.00    80.00      -0.31 -999.99   -0.31    0.00000     0.00  LINEAR    4.88705E-01    30.79    0.00000E+00     0.00
  130.00    80.00      -1.09 -999.99   -1.09    0.00000     0.00  LINEAR    4.46562E-01    32.42    0.00000E+00     0.00
  135.00    80.00      -1.99 -999.99   -1.99    0.00000     0.00  LINEAR    4.02432E-01    34.24    0.00000E+00     0.00
  140.00    80.00      -3.03 -999.99   -3.03    0.00000     0.00  LINEAR    3.57106E-01    36.22    0.00000E+00     0.00
  145.00    80.00      -4.22 -999.99   -4.22    0.00000     0.00  LINEAR    3.11242E-01    38.34    0.00000E+00     0.00
  150.00    80.00      -5.61 -999.99   -5.61    0.00000     0.00  LINEAR    2.65355E-01    40.60    0.00000E+00     0.00
  155.00    80.00      -7.25 -999.99   -7.25    0.00000     0.00  LINEAR    2.19802E-01    42.97    0.00000E+00     0.00
  160.00    80.00      -9.24 -999.99   -9.24    0.00000     0.00  LINEAR    1.74792E-01    45.43    0.00000E+00     0.00
  165.00    80.00     -11.78 -999.99  -11.78    0.00000     0.00  LINEAR    1.30395E-01    47.96    0.00000E+00     0.00
  170.00    80.00     -15.34 -999.99  -15.34    0.00000     0.00  LINEAR    8.65659E-02    50.55    0.00000E+00     0.00
  175.00    80.00     -21.38 -999.99  -21.38    0.00000     0.00  LINEAR    4.31673E-02    53.16    0.00000E+00     0.00
  180.00    80.00    -999.99 -999.99 -999.99    0.00000     0.00            5.04429E-12  -124.21    0.00000E+00     0.00
    0.00    90.00    -999.99 -999.99 -999.99    0.00000     0.00            0.00000E+00     0.00    0.00000E+00     0.00
    5.00    90.00     -21.22 -999.99  -21.22    0.00000     0.00  LINEAR    4.40036E-02    56.47    0.00000E+00     0.00
   10.00    90.00     -15.18 -999.99  -15.18    0.00000     0.00  LINEAR    8.82177E-02    56.45    0.00000E+00     0.00
   15.00    90.00     -11.62 -999.99  -11.62    0.00000     0.00  LINEAR    1.32821E-01    56.41    0.00000E+00     0.00
   20.00    90.00      -9.08 -999.99   -9.08    0.00000     0.00  LINEAR    1.77931E-01    56.36    0.00000E+00     0.00
   25.00    90.00      -7.10 -999.99   -7.10    0.00000     0.00  LINEAR    2.23573E-01    56.29    0.00000E+00     0.00
   30.00    90.00      -5.47 -999.99   -5.47    0.00000     0.00  LINEAR    2.69656E-01    56.21    0.00000E+00     0.00
   35.00    90.00      -4.09 -999.99   -4.09    0.00000     0.00  LINEAR    3.15956E-01    56.13    0.00000E+00     0.00
   40.00    90.00      -2.91 -999.99   -2.91    0.00000     0.00  LINEAR    3.62099E-01    56.05    0.00000E+00     0.00
   45.00    90.00      -1.88 -999.99   -1.88    0.00000     0.00  LINEAR    4.07560E-01    55.96    0.00000E+00     0.00
   50.00    90.00      -0.99 -999.99   -0.99    0.00000     0.00  LINEAR    4.51668E-01    55.87    0.00000E+00     0.00
   55.00    90.00      -0.22 -999.99   -0.22    0.00000     0.00  LINEAR    4.93630E-01    55.79    0.00000E+00     0.00
   60.00    90.00       0.44 -999.99    0.44    0.00000     0.00  LINEAR    5.32560E-01    55.71    0.00000E+00     0.00
   65.00    90.00       0.99 -999.99    0.99    0.00000     0.00  LINEAR    5.67525E-01    55.63    0.00000E+00     0.00
   70.00    90.00       1.44 -999.99    1.44    0.00000     0.00  LINEAR    5.97595E-01    55.56    0.00000E+00     0.00
   75.00    90.00       1.79 -999.99    1.79    0.00000     0.00  LINEAR    6.21903E-01    55.50    0.00000E+00     0.00
   80.00    90.00       2.03 -999.99    2.03    0.00000     0.00  LINEAR    6.39705E-01    55.45    0.00000E+00     0.00
   85.00    90.00       2.18 -999.99    2.18    0.00000     0.00  LINEAR    6.50431E-01    55.41    0.00000E+00     0.00
   90.00    90.00       2.22 -999.99    2.22    0.00000     0.00  LINEAR    6.53727E-01    55.38    0.00000E+00     0.00
   95.00    90.00       2.16 -999.99    2.16    0.00000     0.00  LINEAR    6.49483E-01    55.36    0.00000E+00     0.00
  100.00    90.00       2.01 -999.99    2.01    0.00000     0.00  LINEAR    6.37843E-01    55.34    0.00000E+00     0.00
  105.00    90.00       1.75 -999.99    1.75    0.00000     0.00  LINEAR    6.19193E-01    55.34    0.00000E+00     0.00
  110.00    90.00       1.39 -999.99    1.39    0.00000     0.00  LINEAR    5.94133E-01    55.35    0.00000E+00     0.00
  115.00    90.00       0.93 -999.99    0.93    0.00000     0.00  LINEAR    5.63432E-01    55.37    0.00000E+00     0.00
  120.00    90.00       0.37 -999.99    0.37    0.00000     0.00  LINEAR    5.27976E-01    55.39    0.00000E+00     0.00
  125.00    90.00      -0.31 -999.99   -0.31    0.00000     0.00  LINEAR    4.88705E-01    55.42    0.00000E+00     0.00
  130.00    90.00      -1.09 -999.99   -1.09    0.00000     0.00  LINEAR    4.46562E-01    55.46    0.00000E+00     0.00
  135.00    90.00      -1.99 -999.99   -1.99    0.00000     0.00  LINEAR    4.02432E-01    55.50    0.00000E+00     0.00
  140.00    90.00      -3.03 -999.99   -3.03    0.00000     0.00  LINEAR    3.57106E-01    55.54    0.00000E+00     0.00
  145.00    90.00      -4.22 -999.99   -4.22    0.00000     0.00  LINEAR    3.11242E-01    55.59    0.00000E+00     0.00
  150.00    90.00      -5.61 -999.99   -5.61    0.00000     0.00  LINEAR    2.65355E-01    55.63    0.00000E+00     0.00
  155.00    90.00      -7.25 -999.99   -7.25    0.00000     0.00  LINEAR    2.19802E-01    55.68    0.00000E+00     0.00
  160.00    90.00      -9.24 -999.99   -9.24    0.00000     0.00  LINEAR    1.74792E-01    55.71    0.00000E+00     0.00
  165.00    90.00     -11.78 -999.99  -11.78    0.00000     0.00  LINEAR    1.30395E-01    55.75    0.00000E+00     0.00
  170.00    90.00     -15.34 -999.99  -15.34    0.00000     0.00  LINEAR    8.65659E-02    55.77    0.00000E+00     0.00
  175.00    90.00     -21.38 -999.99  -21.38    0.00000     0.00  LINEAR    4.31673E-02    55.78    0.00000E+00     0.00
  180.00    90.00    -999.99 -999.99 -999.99    0.00000     0.00            5.04429E-12  -124.21    0.00000E+00     0.00
    0.00   100.00    -999.99 -999.99 -999.99    0.00000     0.00            0.00000E+00     0.00    0.00000E+00     0.00
    5.00   100.00     -21.22 -999.99  -21.22    0.00000     0.00  LINEAR    4.40036E-02    59.09    0.00000E+00     0.00
   10.00   100.00     -15.18 -999.99  -15.18    0.00000     0.00  LINEAR    8.82177E-02    61.67    0.00000E+00     0.00
   15.00   100.00     -11.62 -999.99  -11.62    0.00000     0.00  LINEAR    1.32821E-01    64.19    0.00000E+00     0.00
   20.00   100.00      -9.08 -999.99   -9.08    0.00000     0.00  LINEAR    1.77931E-01    66.64    0.00000E+00     0.00
   25.00   100.00      -7.10 -999.99   -7.10    0.00000     0.00  LINEAR    2.23573E-01    69.00    0.00000E+00     0.00
   30.00   100.00      -5.47 -999.99   -5.47    0.00000     0.00  LINEAR    2.69656E-01    71.25    0.00000E+00     0.00
   35.00   100.00      -4.09 -999.99   -4.09    0.00000     0.00  LINEAR    3.15956E-01    73.38    0.00000E+00     0.00
   40.00   100.00      -2.91 -999.99   -2.91    0.00000     0.00  LINEAR    3.62099E-01    75.37    0.00000E+00     0.00
   45.00   100.00      -1.88 -999.99   -1.88    0.00000     0.00  LINEAR    4.07560E-01    77.22    0.00000E+00     0.00
   50.00   100.00      -0.99 -999.99   -0.99    0.00000     0.00  LINEAR    4.51668E-01    78.90    0.00000E+00     0.00
   55.00   100.00      -0.22 -999.99   -0.22    0.00000     0.00  LINEAR    4.93630E-01    80.42    0.00000E+00     0.00
   60.00   100.00       0.44 -999.99    0.44    0.00000     0.00  LINEAR    5.32560E-01    81.74    0.00000E+00     0.00
   65.00   100.00       0.99 -999.99    0.99    0.00000     0.00  LINEAR    5.67525E-01    82.88    0.00000E+00     0.00
   70.00   100.00       1.44 -999.99    1.44    0.00000     0.00  LINEAR    5.97595E-01    83.82    0.00000E+00     0.00
   75.00   100.00       1.79 -999.99    1.79    0.00000     0.00  LINEAR    6.21903E-01    84.55    0.00000E+00     0.00
   80.00   100.00       2.03 -999.99    2.03    0.00000     0.00  LINEAR    6.39705E-01    85.06    0.00000E+00     0.00
   85.00   100.00       2.18 -999.99    2.18    0.00000     0.00  LINEAR    6.50431E-01    85.36    0.00000E+00     0.00
   90.00   100.00       2.22 -999.99    2.22    0.00000     0.00  LINEAR    6.53727E-01    85.45    0.00000E+00     0.00
   95.00   100.00       2.16 -999.99    2.16    0.00000     0.00  LINEAR    6.49483E-01    85.31    0.00000E+00     0.00
  100.00   100.00       2.01 -999.99    2.01    0.00000     0.00  LINEAR    6.37843E-01    84.96    0.00000E+00     0.00
  105.00   100.00       1.75 -999.99    1.75    0.00000     0.00  LINEAR    6.19193E-01    84.39    0.00000E+00     0.00
  110.00   100.00       1.39 -999.99    1.39    0.00000     0.00  LINEAR    5.94133E-01    83.60    0.00000E+00     0.00
  115.00   100.00       0.93 -999.99    0.93    0.00000     0.00  LINEAR    5.63432E-01    82.62    0.00000E+00     0.00
  120.00   100.00       0.37 -999.99    0.37    0.00000     0.00  LINEAR    5.27976E-01    81.43    0.00000E+00     0.00
  125.00   100.00      -0.31 -999.99   -0.31    0.00000     0.00  LINEAR    4.88705E-01    80.05    0.00000E+00     0.00
  130.00   100.00      -1.09 -999.99   -1.09    0.00000     0.00  LINEAR    4.46562E-01    78.49    0.00000E+00     0.00
  135.00   100.00      -1.99 -999.99   -1.99    0.00000     0.00  LINEAR    4.02432E-01    76.76    0.00000E+00     0.00
  140.00   100.00      -3.03 -999.99   -3.03    0.00000     0.00  LINEAR    3.57106E-01    74.87    0.00000E+00     0.00
  145.00   100.00      -4.22 -999.99   -4.22    0.00000     0.00  LINEAR    3.11242E-01    72.84    0.00000E+00     0.00
  150.00   100.00      -5.61 -999.99   -5.61    0.00000     0.00  LINEAR    2.65355E-01    70.67    0.00000E+00     0.00
  155.00   100.00      -7.25 -999.99   -7.25    0.00000     0.00  LINEAR    2.19802E-01    68.38    0.00000E+00     0.00
  160.00   100.00      -9.24 -999.99   -9.24    0.00000     0.00  LINEAR    1.74792E-01    66.00    0.00000E+00     0.00
  165.00   100.00     -11.78 -999.99  -11.78    0.00000     0.00  LINEAR    1.30395E-01    63.53    0.00000E+00     0.00
  170.00   100.00     -15.34 -999.99  -15.34    0.00000     0.00  LINEAR    8.65659E-02    60.99    0.00000E+00     0.00
  175.00   100.00     -21.38 -999.99  -21.38    0.00000     0.00  LINEAR    4.31673E-02    58.41    0.00000E+00     0.00
  180.00   100.00    -999.99 -999.99 -999.99    0.00000     0.00            5.04429E-12  -124.21    0.00000E+00     0.00
    0.00   110.00    -999.99 -999.99 -999.99    0.00000     0.00            0.00000E+00     0.00    0.00000E+00     0.00
    5.00   110.00     -21.22 -999.99  -21.22    0.00000     0.00  LINEAR    4.40036E-02    61.63    0.00000E+00     0.00
   10.00   110.00     -15.18 -999.99  -15.18    0.00000     0.00  LINEAR    8.82177E-02    66.73    0.00000E+00     0.00
   15.00   110.00     -11.62 -999.99  -11.62    0.00000     0.00  LINEAR    1.32821E-01    71.74    0.00000E+00     0.00
   20.00   110.00      -9.08 -999.99   -9.08    0.00000     0.00  LINEAR    1.77931E-01    76.61    0.00000E+00     0.00
   25.00   110.00      -7.10 -999.99   -7.10    0.00000     0.00  LINEAR    2.23573E-01    81.32    0.00000E+00     0.00
   30.00   110.00      -5.47 -999.99   -5.47    0.00000     0.00  LINEAR    2.69656E-01    85.83    0.00000E+00     0.00
   35.00   110.00      -4.09 -999.99   -4.09    0.00000     0.00  LINEAR    3.15956E-01    90.10    0.00000E+00     0.00
   40.00   110.00      -2.91 -999.99   -2.91    0.00000     0.00  LINEAR    3.62099E-01    94.11    0.00000E+00     0.00
   45.00   110.00      -1.88 -999.99   -1.88    0.00000     0.00  LINEAR    4.07560E-01    97.84    0.00000E+00     0.00
   50.00   110.00      -0.99 -999.99   -0.99    0.00000     0.00  LINEAR    4.51668E-01   101.24    0.00000E+00     0.00
   55.00   110.00      -0.22 -999.99   -0.22    0.00000     0.00  LINEAR    4.93630E-01   104.30    0.00000E+00     0.00
   60.00   110.00       0.44 -999.99    0.44    0.00000     0.00  LINEAR    5.32560E-01   106.99    0.00000E+00     0.00
   65.00   110.00       0.99 -999.99    0.99    0.00000     0.00  LINEAR    5.67525E-01   109.30    0.00000E+00     0.00
   70.00   110.00       1.44 -999.99    1.44    0.00000     0.00  LINEAR    5.97595E-01   111.21    0.00000E+00     0.00
   75.00   110.00       1.79 -999.99    1.79    0.00000     0.00  LINEAR    6.21903E-01   112.71    0.00000E+00     0.00
   80.00   110.00       2.03 -999.99    2.03    0.00000     0.00  LINEAR    6.39705E-01   113.77    0.00000E+00     0.00
   85.00   110.00       2.18 -999.99    2.18    0.00000     0.00  LINEAR    6.50431E-01   114.41    0.00000E+00     0.00
   90.00   110.00       2.22 -999.99    2.22    0.00000     0.00  LINEAR    6.53727E-01   114.60    0.00000E+00     0.00
   95.00   110.00       2.16 -999.99    2.16    0.00000     0.00  LINEAR    6.49483E-01   114.35    0.00000E+00     0.00
  100.00   110.00       2.01 -999.99    2.01    0.00000     0.00  LINEAR    6.37843E-01   113.67    0.00000E+00     0.00
  105.00   110.00       1.75 -999.99    1.75    0.00000     0.00  LINEAR    6.19193E-01   112.55    0.00000E+00     0.00
  110.00   110.00       1.39 -999.99    1.39    0.00000     0.00  LINEAR    5.94133E-01   111.00    0.00000E+00     0.00
  115.00   110.00       0.93 -999.99    0.93    0.00000     0.00  LINEAR    5.63432E-01   109.04    0.00000E+00     0.00
  120.00   110.00       0.37 -999.99    0.37    0.00000     0.00  LINEAR    5.27976E-01   106.68    0.00000E+00     0.00
  125.00   110.00      -0.31 -999.99   -0.31    0.00000     0.00  LINEAR    4.88705E-01   103.93    0.00000E+00     0.00
  130.00   110.00      -1.09 -999.99   -1.09    0.00000     0.00  LINEAR    4.46562E-01   100.83    0.00000E+00     0.00
  135.00   110.00      -1.99 -999.99   -1.99    0.00000     0.00  LINEAR    4.02432E-01    97.38    0.00000E+00     0.00
  140.00   110.00      -3.03 -999.99   -3.03    0.00000     0.00  LINEAR    3.57106E-01    93.61    0.00000E+00     0.00
  145.00   110.00      -4.22 -999.99   -4.22    0.00000     0.00  LINEAR    3.11242E-01    89.56    0.00000E+00     0.00
  150.00   110.00      -5.61 -999.99   -5.61    0.00000     0.00  LINEAR    2.65355E-01    85.25    0.00000E+00     0.00
  155.00   110.00      -7.25 -999.99   -7.25    0.00000     0.00  LINEAR    2.19802E-01    80.71    0.00000E+00     0.00
  160.00   110.00      -9.24 -999.99   -9.24    0.00000     0.00  LINEAR    1.74792E-01    75.97    0.00000E+00     0.00
  165.00   110.00     -11.78 -999.99  -11.78    0.00000     0.00  LINEAR    1.30395E-01    71.07    0.00000E+00     0.00
  170.00   110.00     -15.34 -999.99  -15.34    0.00000     0.00  LINEAR    8.65659E-02    66.05    0.00000E+00     0.00
  175.00   110.00     -21.38 -999.99  -21.38    0.00000     0.00  LINEAR    4.31673E-02    60.95    0.00000E+00     0.00
  180.00   110.00    -999.99 -999.99 -999.99    0.00000     0.00            5.04429E-12  -124.21    0.00000E+00     0.00
    0.00   120.00    -999.99 -999.99 -999.99    0.00000     0.00            0.00000E+00     0.00    0.00000E+00     0.00
    5.00   120.00     -21.22 -999.99  -21.22    0.00000     0.00  LINEAR    4.40036E-02    64.02    0.00000E+00     0.00
   10.00   120.00     -15.18 -999.99  -15.18    0.00000     0.00  LINEAR    8.82177E-02    71.48    0.00000E+00     0.00
   15.00   120.00     -11.62 -999.99  -11.62    0.00000     0.00  LINEAR    1.32821E-01    78.82    0.00000E+00     0.00
   20.00   120.00      -9.08 -999.99   -9.08    0.00000     0.00  LINEAR    1.77931E-01    85.97    0.00000E+00     0.00
   25.00   120.00      -7.10 -999.99   -7.10    0.00000     0.00  LINEAR    2.23573E-01    92.88    0.00000E+00     0.00
   30.00   120.00      -5.47 -999.99   -5.47    0.00000     0.00  LINEAR    2.69656E-01    99.50    0.00000E+00     0.00
   35.00   120.00      -4.09 -999.99   -4.09    0.00000     0.00  LINEAR    3.15956E-01   105.79    0.00000E+00     0.00
   40.00   120.00      -2.91 -999.99   -2.91    0.00000     0.00  LINEAR    3.62099E-01   111.70    0.00000E+00     0.00
   45.00   120.00      -1.88 -999.99   -1.88    0.00000     0.00  LINEAR    4.07560E-01   117.18    0.00000E+00     0.00
   50.00   120.00      -0.99 -999.99   -0.99    0.00000     0.00  LINEAR    4.51668E-01   122.19    0.00000E+00     0.00
   55.00   120.00      -0.22 -999.99   -0.22    0.00000     0.00  LINEAR    4.93630E-01   126.71    0.00000E+00     0.00
   60.00   120.00       0.44 -999.99    0.44    0.00000     0.00  LINEAR    5.32560E-01   130.68    0.00000E+00     0.00
   65.00   120.00       0.99 -999.99    0.99    0.00000     0.00  LINEAR    5.67525E-01   134.10    0.00000E+00     0.00
   70.00   120.00       1.44 -999.99    1.44    0.00000     0.00  LINEAR    5.97595E-01   136.92    0.00000E+00     0.00
   75.00   120.00       1.79 -999.99    1.79    0.00000     0.00  LINEAR    6.21903E-01   139.13    0.00000E+00     0.00
   80.00   120.00       2.03 -999.99    2.03    0.00000     0.00  LINEAR    6.39705E-01   140.71    0.00000E+00     0.00
   85.00   120.00       2.18 -999.99    2.18    0.00000     0.00  LINEAR    6.50431E-01   141.66    0.00000E+00     0.00
   90.00   120.00       2.22 -999.99    2.22    0.00000     0.00  LINEAR    6.53727E-01   141.96    0.00000E+00     0.00
   95.00   120.00       2.16 -999.99    2.16    0.00000     0.00  LINEAR    6.49483E-01   141.60    0.00000E+00     0.00
  100.00   120.00       2.01 -999.99    2.01    0.00000     0.00  LINEAR    6.37843E-01   140.61    0.00000E+00     0.00
  105.00   120.00       1.75 -999.99    1.75    0.00000     0.00  LINEAR    6.19193E-01   138.97    0.00000E+00     0.00
  110.00   120.00       1.39 -999.99    1.39    0.00000     0.00  LINEAR    5.94133E-01   136.71    0.00000E+00     0.00
  115.00   120.00       0.93 -999.99    0.93    0.00000     0.00  LINEAR    5.63432E-01   133.83    0.00000E+00     0.00
  120.00   120.00       0.37 -999.99    0.37    0.00000     0.00  LINEAR    5.27976E-01   130.37    0.00000E+00     0.00
  125.00   120.00      -0.31 -999.99   -0.31    0.00000     0.00  LINEAR    4.88705E-01   126.34    0.00000E+00     0.00
  130.00   120.00      -1.09 -999.99   -1.09    0.00000     0.00  LINEAR    4.46562E-01   121.78    0.00000E+00     0.00
  135.00   120.00      -1.99 -999.99   -1.99    0.00000     0.00  LINEAR    4.02432E-01   116.72    0.00000E+00     0.00
  140.00   120.00      -3.03 -999.99   -3.03    0.00000     0.00  LINEAR    3.57106E-01   111.20    0.00000E+00     0.00
  145.00   120.00      -4.22 -999.99   -4.22    0.00000     0.00  LINEAR    3.11242E-01   105.25    0.00000E+00     0.00
  150.00   120.00      -5.61 -999.99   -5.61    0.00000     0.00  LINEAR    2.65355E-01    98.92    0.00000E+00     0.00
  155.00   120.00      -7.25 -999.99   -7.25    0.00000     0.00  LINEAR    2.19802E-01    92.27    0.00000E+00     0.00
  160.00   120.00      -9.24 -999.99   -9.24    0.00000     0.00  LINEAR    1.74792E-01    85.33    0.00000E+00     0.00
  165.00   120.00     -11.78 -999.99  -11.78    0.00000     0.00  LINEAR    1.30395E-01    78.15    0.00000E+00     0.00
  170.00   120.00     -15.34 -999.99  -15.34    0.00000     0.00  LINEAR    8.65659E-02    70.80    0.00000E+00     0.00
  175.00   120.00     -21.38 -999.99  -21.38    0.00000     0.00  LINEAR    4.31673E-02    63.33    0.00000E+00     0.00
  180.00   120.00    -999.99 -999.99 -999.99    0.00000     0.00            5.04429E-12  -124.21    0.00000E+00     0.00
    0.00   130.00    -999.99 -999.99 -999.99    0.00000     0.00            0.00000E+00     0.00    0.00000E+00     0.00
    5.00   130.00     -21.22 -999.99  -21.22    0.00000     0.00  LINEAR    4.40036E-02    66.17    0.00000E+00     0.00
   10.00   130.00     -15.18 -999.99  -15.18    0.00000     0.00  LINEAR    8.82177E-02    75.78    0.00000E+00     0.00
   15.00   130.00     -11.62 -999.99  -11.62    0.00000     0.00  LINEAR    1.32821E-01    85.22    0.00000E+00     0.00
   20.00   130.00      -9.08 -999.99   -9.08    0.00000     0.00  LINEAR    1.77931E-01    94.42    0.00000E+00     0.00
   25.00   130.00      -7.10 -999.99   -7.10    0.00000     0.00  LINEAR    2.23573E-01   103.33    0.00000E+00     0.00
   30.00   130.00      -5.47 -999.99   -5.47    0.00000     0.00  LINEAR    2.69656E-01   111.87    0.00000E+00     0.00
   35.00   130.00      -4.09 -999.99   -4.09    0.00000     0.00  LINEAR    3.15956E-01   119.97    0.00000E+00     0.00
   40.00   130.00      -2.91 -999.99   -2.91    0.00000     0.00  LINEAR    3.62099E-01   127.59    0.00000E+00     0.00
   45.00   130.00      -1.88 -999.99   -1.88    0.00000     0.00  LINEAR    4.07560E-01   134.66    0.00000E+00     0.00
   50.00   130.00      -0.99 -999.99   -0.99    0.00000     0.00  LINEAR    4.51668E-01   141.13    0.00000E+00     0.00
   55.00   130.00      -0.22 -999.99   -0.22    0.00000     0.00  LINEAR    4.93630E-01   146.96    0.00000E+00     0.00
   60.00   130.00       0.44 -999.99    0.44    0.00000     0.00  LINEAR    5.32560E-01   152.10    0.00000E+00     0.00
   65.00   130.00       0.99 -999.99    0.99    0.00000     0.00  LINEAR    5.67525E-01   156.50    0.00000E+00     0.00
   70.00   130.00       1.44 -999.99    1.44    0.00000     0.00  LINEAR    5.97595E-01   160.15    0.00000E+00     0.00
   75.00   130.00       1.79 -999.99    1.79    0.00000     0.00  LINEAR    6.21903E-01   163.01    0.00000E+00     0.00
   80.00   130.00       2.03 -999.99    2.03    0.00000     0.00  LINEAR    6.39705E-01   165.06    0.00000E+00     0.00
   85.00   130.00       2.18 -999.99    2.18    0.00000     0.00  LINEAR    6.50431E-01   166.29    0.00000E+00     0.00
   90.00   130.00       2.22 -999.99    2.22    0.00000     0.00  LINEAR    6.53727E-01   166.68    0.00000E+00     0.00
   95.00   130.00       2.16 -999.99    2.16    0.00000     0.00  LINEAR    6.49483E-01   166.24    0.00000E+00     0.00
  100.00   130.00       2.01 -999.99    2.01    0.00000     0.00  LINEAR    6.37843E-01   164.96    0.00000E+00     0.00
  105.00   130.00       1.75 -999.99    1.75    0.00000     0.00  LINEAR    6.19193E-01   162.85    0.00000E+00     0.00
  110.00   130.00       1.39 -999.99    1.39    0.00000     0.00  LINEAR    5.94133E-01   159.94    0.00000E+00     0.00
  115.00   130.00       0.93 -999.99    0.93    0.00000     0.00  LINEAR    5.63432E-01   156.24    0.00000E+00     0.00
  120.00   130.00       0.37 -999.99    0.37    0.00000     0.00  LINEAR    5.27976E-01   151.78    0.00000E+00     0.00
  125.00   130.00      -0.31 -999.99   -0.31    0.00000     0.00  LINEAR    4.88705E-01   146.59    0.00000E+00     0.00
  130.00   130.00      -1.09 -999.99   -1.09    0.00000     0.00  LINEAR    4.46562E-01   140.72    0.00000E+00     0.00
  135.00   130.00      -1.99 -999.99   -1.99    0.00000     0.00  LINEAR    4.02432E-01   134.20    0.00000E+00     0.00
  140.00   130.00      -3.03 -999.99   -3.03    0.00000     0.00  LINEAR    3.57106E-01   127.09    0.00000E+00     0.00
  145.00   130.00      -4.22 -999.99   -4.22    0.00000     0.00  LINEAR    3.11242E-01   119.43    0.00000E+00     0.00
  150.00   130.00      -5.61 -999.99   -5.61    0.00000     0.00  LINEAR    2.65355E-01   111.29    0.00000E+00     0.00
  155.00   130.00      -7.25 -999.99   -7.25    0.00000     0.00  LINEAR    2.19802E-01   102.72    0.00000E+00     0.00
  160.00   130.00      -9.24 -999.99   -9.24    0.00000     0.00  LINEAR    1.74792E-01    93.78    0.00000E+00     0.00
  165.00   130.00     -11.78 -999.99  -11.78    0.00000     0.00  LINEAR    1.30395E-01    84.55    0.00000E+00     0.00
  170.00   130.00     -15.34 -999.99  -15.34    0.00000     0.00  LINEAR    8.65659E-02    75.10    0.00000E+00     0.00
  175.00   130.00     -21.38 -999.99  -21.38    0.00000     0.00  LINEAR    4.31673E-02    65.49    0.00000E+00     0.00
  180.00   130.00    -999.99 -999.99 -999.99    0.00000     0.00            5.04429E-12  -124.21    0.00000E+00     0.00
    0.00   140.00    -999.99 -999.99 -999.99    0.00000     0.00            0.00000E+00     0.00    0.00000E+00     0.00
    5.00   140.00     -21.22 -999.99  -21.22    0.00000     0.00  LINEAR    4.40036E-02    68.03    0.00000E+00     0.00
   10.00   140.00     -15.18 -999.99  -15.18    0.00000     0.00  LINEAR    8.82177E-02    79.48    0.00000E+00     0.00
   15.00   140.00     -11.62 -999.99  -11.62    0.00000     0.00  LINEAR    1.32821E-01    90.74    0.00000E+00     0.00
   20.00   140.00      -9.08 -999.99   -9.08    0.00000     0.00  LINEAR    1.77931E-01   101.72    0.00000E+00     0.00
   25.00   140.00      -7.10 -999.99   -7.10    0.00000     0.00  LINEAR    2.23573E-01   112.35    0.00000E+00     0.00
   30.00   140.00      -5.47 -999.99   -5.47    0.00000     0.00  LINEAR    2.69656E-01   122.54    0.00000E+00     0.00
   35.00   140.00      -4.09 -999.99   -4.09    0.00000     0.00  LINEAR    3.15956E-01   132.21    0.00000E+00     0.00
   40.00   140.00      -2.91 -999.99   -2.91    0.00000     0.00  LINEAR    3.62099E-01   141.31    0.00000E+00     0.00
   45.00   140.00      -1.88 -999.99   -1.88    0.00000     0.00  LINEAR    4.07560E-01   149.75    0.00000E+00     0.00
   50.00   140.00      -0.99 -999.99   -0.99    0.00000     0.00  LINEAR    4.51668E-01   157.48    0.00000E+00     0.00
   55.00   140.00      -0.22 -999.99   -0.22    0.00000     0.00  LINEAR    4.93630E-01   164.44    0.00000E+00     0.00
   60.00   140.00       0.44 -999.99    0.44    0.00000     0.00  LINEAR    5.32560E-01   170.58    0.00000E+00     0.00
   65.00   140.00       0.99 -999.99    0.99    0.00000     0.00  LINEAR    5.67525E-01   175.85    0.00000E+00     0.00
   70.00   140.00       1.44 -999.99    1.44    0.00000     0.00  LINEAR    5.97595E-01  -179.79    0.00000E+00     0.00
   75.00   140.00       1.79 -999.99    1.79    0.00000     0.00  LINEAR    6.21903E-01  -176.37    0.00000E+00     0.00
   80.00   140.00       2.03 -999.99    2.03    0.00000     0.00  LINEAR    6.39705E-01  -173.92    0.00000E+00     0.00
   85.00   140.00       2.18 -999.99    2.18    0.00000     0.00  LINEAR    6.50431E-01  -172.45    0.00000E+00     0.00
   90.00   140.00       2.22 -999.99    2.22    0.00000     0.00  LINEAR    6.53727E-01  -171.98    0.00000E+00     0.00
   95.00   140.00       2.16 -999.99    2.16    0.00000     0.00  LINEAR    6.49483E-01  -172.50    0.00000E+00     0.00
  100.00   140.00       2.01 -999.99    2.01    0.00000     0.00  LINEAR    6.37843E-01  -174.03    0.00000E+00     0.00
  105.00   140.00       1.75 -999.99    1.75    0.00000     0.00  LINEAR    6.19193E-01  -176.53    0.00000E+00     0.00
  110.00   140.00       1.39 -999.99    1.39    0.00000     0.00  LINEAR    5.94133E-01   180.00    0.00000E+00     0.00
  115.00   140.00       0.93 -999.99    0.93    0.00000     0.00  LINEAR    5.63432E-01   175.58    0.00000E+00     0.00
  120.00   140.00       0.37 -999.99    0.37    0.00000     0.00  LINEAR    5.27976E-01   170.26    0.00000E+00     0.00
  125.00   140.00      -0.31 -999.99   -0.31    0.00000     0.00  LINEAR    4.88705E-01   164.08    0.00000E+00     0.00
  130.00   140.00      -1.09 -999.99   -1.09    0.00000     0.00  LINEAR    4.46562E-01   157.07    0.00000E+00     0.00
  135.00   140.00      -1.99 -999.99   -1.99    0.00000     0.00  LINEAR    4.02432E-01   149.29    0.00000E+00     0.00
  140.00   140.00      -3.03 -999.99   -3.03    0.00000     0.00  LINEAR    3.57106E-01   140.81    0.00000E+00     0.00
  145.00   140.00      -4.22 -999.99   -4.22    0.00000     0.00  LINEAR    3.11242E-01   131.67    0.00000E+00     0.00
  150.00   140.00      -5.61 -999.99   -5.61    0.00000     0.00  LINEAR    2.65355E-01   121.96    0.00000E+00     0.00
  155.00   140.00      -7.25 -999.99   -7.25    0.00000     0.00  LINEAR    2.19802E-01   111.73    0.00000E+00     0.00
  160.00   140.00      -9.24 -999.99   -9.24    0.00000     0.00  LINEAR    1.74792E-01   101.08    0.00000E+00     0.00
  165.00   140.00     -11.78 -999.99  -11.78    0.00000     0.00  LINEAR    1.30395E-01    90.08    0.00000E+00     0.00
  170.00   140.00     -15.34 -999.99  -15.34    0.00000     0.00  LINEAR    8.65659E-02    78.80    0.00000E+00     0.00
  175.00   140.00     -21.38 -999.99  -21.38    0.00000     0.00  LINEAR    4.31673E-02    67.35    0.00000E+00     0.00
  180.00   140.00    -999.99 -999.99 -999.99    0.00000     0.00            5.04429E-12  -124.21    0.00000E+00     0.00
    0.00   150.00    -999.99 -999.99 -999.99    0.00000     0.00            0.00000E+00     0.00    0.00000E+00     0.00
    5.00   150.00     -21.22 -999.99  -21.22    0.00000     0.00  LINEAR    4.40036E-02    69.54    0.00000E+00     0.00
   10.00   150.00     -15.18 -999.99  -15.18    0.00000     0.00  LINEAR    8.82177E-02    82.49    0.00000E+00     0.00
   15.00   150.00     -11.62 -999.99  -11.62    0.00000     0.00  LINEAR    1.32821E-01    95.22    0.00000E+00     0.00
   20.00   150.00      -9.08 -999.99   -9.08    0.00000     0.00  LINEAR    1.77931E-01   107.64    0.00000E+00     0.00
   25.00   150.00      -7.10 -999.99   -7.10    0.00000     0.00  LINEAR    2.23573E-01   119.66    0.00000E+00     0.00
   30.00   150.00      -5.47 -999.99   -5.47    0.00000     0.00  LINEAR    2.69656E-01   131.19    0.00000E+00     0.00
   35.00   150.00      -4.09 -999.99   -4.09    0.00000     0.00  LINEAR    3.15956E-01   142.14    0.00000E+00     0.00
   40.00   150.00      -2.91 -999.99   -2.91    0.00000     0.00  LINEAR    3.62099E-01   152.44    0.00000E+00     0.00
   45.00   150.00      -1.88 -999.99   -1.88    0.00000     0.00  LINEAR    4.07560E-01   161.99    0.00000E+00     0.00
   50.00   150.00      -0.99 -999.99   -0.99    0.00000     0.00  LINEAR    4.51668E-01   170.74    0.00000E+00     0.00
   55.00   150.00      -0.22 -999.99   -0.22    0.00000     0.00  LINEAR    4.93630E-01   178.62    0.00000E+00     0.00
   60.00   150.00       0.44 -999.99    0.44    0.00000     0.00  LINEAR    5.32560E-01  -174.43    0.00000E+00     0.00
   65.00   150.00       0.99 -999.99    0.99    0.00000     0.00  LINEAR    5.67525E-01  -168.46    0.00000E+00     0.00
   70.00   150.00       1.44 -999.99    1.44    0.00000     0.00  LINEAR    5.97595E-01  -163.52    0.00000E+00     0.00
   75.00   150.00       1.79 -999.99    1.79    0.00000     0.00  LINEAR    6.21903E-01  -159.65    0.00000E+00     0.00
   80.00   150.00       2.03 -999.99    2.03    0.00000     0.00  LINEAR    6.39705E-01  -156.87    0.00000E+00     0.00
   85.00   150.00       2.18 -999.99    2.18    0.00000     0.00  LINEAR    6.50431E-01  -155.20    0.00000E+00     0.00
   90.00   150.00       2.22 -999.99    2.22    0.00000     0.00  LINEAR    6.53727E-01  -154.66    0.00000E+00     0.00
   95.00   150.00       2.16 -999.99    2.16    0.00000     0.00  LINEAR    6.49483E-01  -155.26    0.00000E+00     0.00
  100.00   150.00       2.01 -999.99    2.01    0.00000     0.00  LINEAR    6.37843E-01  -156.98    0.00000E+00     0.00
  105.00   150.00       1.75 -999.99    1.75    0.00000     0.00  LINEAR    6.19193E-01  -159.81    0.00000E+00     0.00
  110.00   150.00       1.39 -999.99    1.39    0.00000     0.00  LINEAR    5.94133E-01  -163.74    0.00000E+00     0.00
  115.00   150.00       0.93 -999.99    0.93    0.00000     0.00  LINEAR    5.63432E-01  -168.73    0.00000E+00     0.00
  120.00   150.00       0.37 -999.99    0.37    0.00000     0.00  LINEAR    5.27976E-01  -174.74    0.00000E+00     0.00
  125.00   150.00      -0.31 -999.99   -0.31    0.00000     0.00  LINEAR    4.88705E-01   178.26    0.00000E+00     0.00
  130.00   150.00      -1.09 -999.99   -1.09    0.00000     0.00  LINEAR    4.46562E-01   170.33    0.00000E+00     0.00
  135.00   150.00      -1.99 -999.99   -1.99    0.00000     0.00  LINEAR    4.02432E-01   161.54    0.00000E+00     0.00
[...]
  120.00   320.00       0.37 -999.99    0.37    0.00000     0.00  LINEAR    5.27976E-01   -59.48    0.00000E+00     0.00
  125.00   320.00      -0.31 -999.99   -0.31    0.00000     0.00  LINEAR    4.88705E-01   -53.24    0.00000E+00     0.00
  130.00   320.00      -1.09 -999.99   -1.09    0.00000     0.00  LINEAR    4.46562E-01   -46.15    0.00000E+00     0.00
  135.00   320.00      -1.99 -999.99   -1.99    0.00000     0.00  LINEAR    4.02432E-01   -38.29    0.00000E+00     0.00
  140.00   320.00      -3.03 -999.99   -3.03    0.00000     0.00  LINEAR    3.57106E-01   -29.72    0.00000E+00     0.00
  145.00   320.00      -4.22 -999.99   -4.22    0.00000     0.00  LINEAR    3.11242E-01   -20.49    0.00000E+00     0.00
  150.00   320.00      -5.61 -999.99   -5.61    0.00000     0.00  LINEAR    2.65355E-01   -10.69    0.00000E+00     0.00
  155.00   320.00      -7.25 -999.99   -7.25    0.00000     0.00  LINEAR    2.19802E-01    -0.38    0.00000E+00     0.00
  160.00   320.00      -9.24 -999.99   -9.24    0.00000     0.00  LINEAR    1.74792E-01    10.35    0.00000E+00     0.00
  165.00   320.00     -11.78 -999.99  -11.78    0.00000     0.00  LINEAR    1.30395E-01    21.42    0.00000E+00     0.00
  170.00   320.00     -15.34 -999.99  -15.34    0.00000     0.00  LINEAR    8.65659E-02    32.74    0.00000E+00     0.00
  175.00   320.00     -21.38 -999.99  -21.38    0.00000     0.00  LINEAR    4.31673E-02    44.22    0.00000E+00     0.00
  180.00   320.00    -999.99 -999.99 -999.99    0.00000     0.00            5.04429E-12  -124.21    0.00000E+00     0.00
    0.00   330.00    -999.99 -999.99 -999.99    0.00000     0.00            0.00000E+00     0.00    0.00000E+00     0.00
    5.00   330.00     -21.22 -999.99  -21.22    0.00000     0.00  LINEAR    4.40036E-02    43.40    0.00000E+00     0.00
   10.00   330.00     -15.18 -999.99  -15.18    0.00000     0.00  LINEAR    8.82177E-02    30.41    0.00000E+00     0.00
   15.00   330.00     -11.62 -999.99  -11.62    0.00000     0.00  LINEAR    1.32821E-01    17.60    0.00000E+00     0.00
   20.00   330.00      -9.08 -999.99   -9.08    0.00000     0.00  LINEAR    1.77931E-01     5.07    0.00000E+00     0.00
   25.00   330.00      -7.10 -999.99   -7.10    0.00000     0.00  LINEAR    2.23573E-01    -7.08    0.00000E+00     0.00
   30.00   330.00      -5.47 -999.99   -5.47    0.00000     0.00  LINEAR    2.69656E-01   -18.76    0.00000E+00     0.00
   35.00   330.00      -4.09 -999.99   -4.09    0.00000     0.00  LINEAR    3.15956E-01   -29.88    0.00000E+00     0.00
   40.00   330.00      -2.91 -999.99   -2.91    0.00000     0.00  LINEAR    3.62099E-01   -40.34    0.00000E+00     0.00
   45.00   330.00      -1.88 -999.99   -1.88    0.00000     0.00  LINEAR    4.07560E-01   -50.08    0.00000E+00     0.00
   50.00   330.00      -0.99 -999.99   -0.99    0.00000     0.00  LINEAR    4.51668E-01   -59.00    0.00000E+00     0.00
   55.00   330.00      -0.22 -999.99   -0.22    0.00000     0.00  LINEAR    4.93630E-01   -67.05    0.00000E+00     0.00
   60.00   330.00       0.44 -999.99    0.44    0.00000     0.00  LINEAR    5.32560E-01   -74.16    0.00000E+00     0.00
   65.00   330.00       0.99 -999.99    0.99    0.00000     0.00  LINEAR    5.67525E-01   -80.28    0.00000E+00     0.00
   70.00   330.00       1.44 -999.99    1.44    0.00000     0.00  LINEAR    5.97595E-01   -85.35    0.00000E+00     0.00
   75.00   330.00       1.79 -999.99    1.79    0.00000     0.00  LINEAR    6.21903E-01   -89.35    0.00000E+00     0.00
   80.00   330.00       2.03 -999.99    2.03    0.00000     0.00  LINEAR    6.39705E-01   -92.23    0.00000E+00     0.00
   85.00   330.00       2.18 -999.99    2.18    0.00000     0.00  LINEAR    6.50431E-01   -93.98    0.00000E+00     0.00
   90.00   330.00       2.22 -999.99    2.22    0.00000     0.00  LINEAR    6.53727E-01   -94.58    0.00000E+00     0.00
   95.00   330.00       2.16 -999.99    2.16    0.00000     0.00  LINEAR    6.49483E-01   -94.03    0.00000E+00     0.00
  100.00   330.00       2.01 -999.99    2.01    0.00000     0.00  LINEAR    6.37843E-01   -92.33    0.00000E+00     0.00
  105.00   330.00       1.75 -999.99    1.75    0.00000     0.00  LINEAR    6.19193E-01   -89.50    0.00000E+00     0.00
  110.00   330.00       1.39 -999.99    1.39    0.00000     0.00  LINEAR    5.94133E-01   -85.56    0.00000E+00     0.00
  115.00   330.00       0.93 -999.99    0.93    0.00000     0.00  LINEAR    5.63432E-01   -80.54    0.00000E+00     0.00
  120.00   330.00       0.37 -999.99    0.37    0.00000     0.00  LINEAR    5.27976E-01   -74.48    0.00000E+00     0.00
  125.00   330.00      -0.31 -999.99   -0.31    0.00000     0.00  LINEAR    4.88705E-01   -67.42    0.00000E+00     0.00
  130.00   330.00      -1.09 -999.99   -1.09    0.00000     0.00  LINEAR    4.46562E-01   -59.42    0.00000E+00     0.00
  135.00   330.00      -1.99 -999.99   -1.99    0.00000     0.00  LINEAR    4.02432E-01   -50.54    0.00000E+00     0.00
  140.00   330.00      -3.03 -999.99   -3.03    0.00000     0.00  LINEAR    3.57106E-01   -40.85    0.00000E+00     0.00
  145.00   330.00      -4.22 -999.99   -4.22    0.00000     0.00  LINEAR    3.11242E-01   -30.42    0.00000E+00     0.00
  150.00   330.00      -5.61 -999.99   -5.61    0.00000     0.00  LINEAR    2.65355E-01   -19.34    0.00000E+00     0.00
  155.00   330.00      -7.25 -999.99   -7.25    0.00000     0.00  LINEAR    2.19802E-01    -7.70    0.00000E+00     0.00
  160.00   330.00      -9.24 -999.99   -9.24    0.00000     0.00  LINEAR    1.74792E-01     4.43    0.00000E+00     0.00
  165.00   330.00     -11.78 -999.99  -11.78    0.00000     0.00  LINEAR    1.30395E-01    16.93    0.00000E+00     0.00
  170.00   330.00     -15.34 -999.99  -15.34    0.00000     0.00  LINEAR    8.65659E-02    29.73    0.00000E+00     0.00
  175.00   330.00     -21.38 -999.99  -21.38    0.00000     0.00  LINEAR    4.31673E-02    42.72    0.00000E+00     0.00
  180.00   330.00    -999.99 -999.99 -999.99    0.00000     0.00            5.04429E-12  -124.21    0.00000E+00     0.00
    0.00   340.00    -999.99 -999.99 -999.99    0.00000     0.00            0.00000E+00     0.00    0.00000E+00     0.00
    5.00   340.00     -21.22 -999.99  -21.22    0.00000     0.00  LINEAR    4.40036E-02    42.29    0.00000E+00     0.00
   10.00   340.00     -15.18 -999.99  -15.18    0.00000     0.00  LINEAR    8.82177E-02    28.19    0.00000E+00     0.00
   15.00   340.00     -11.62 -999.99  -11.62    0.00000     0.00  LINEAR    1.32821E-01    14.30    0.00000E+00     0.00
   20.00   340.00      -9.08 -999.99   -9.08    0.00000     0.00  LINEAR    1.77931E-01     0.70    0.00000E+00     0.00
   25.00   340.00      -7.10 -999.99   -7.10    0.00000     0.00  LINEAR    2.23573E-01   -12.48    0.00000E+00     0.00
   30.00   340.00      -5.47 -999.99   -5.47    0.00000     0.00  LINEAR    2.69656E-01   -25.14    0.00000E+00     0.00
   35.00   340.00      -4.09 -999.99   -4.09    0.00000     0.00  LINEAR    3.15956E-01   -37.20    0.00000E+00     0.00
   40.00   340.00      -2.91 -999.99   -2.91    0.00000     0.00  LINEAR    3.62099E-01   -48.54    0.00000E+00     0.00
   45.00   340.00      -1.88 -999.99   -1.88    0.00000     0.00  LINEAR    4.07560E-01   -59.10    0.00000E+00     0.00
   50.00   340.00      -0.99 -999.99   -0.99    0.00000     0.00  LINEAR    4.51668E-01   -68.77    0.00000E+00     0.00
   55.00   340.00      -0.22 -999.99   -0.22    0.00000     0.00  LINEAR    4.93630E-01   -77.50    0.00000E+00     0.00
   60.00   340.00       0.44 -999.99    0.44    0.00000     0.00  LINEAR    5.32560E-01   -85.21    0.00000E+00     0.00
   65.00   340.00       0.99 -999.99    0.99    0.00000     0.00  LINEAR    5.67525E-01   -91.84    0.00000E+00     0.00
   70.00   340.00       1.44 -999.99    1.44    0.00000     0.00  LINEAR    5.97595E-01   -97.34    0.00000E+00     0.00
   75.00   340.00       1.79 -999.99    1.79    0.00000     0.00  LINEAR    6.21903E-01  -101.67    0.00000E+00     0.00
   80.00   340.00       2.03 -999.99    2.03    0.00000     0.00  LINEAR    6.39705E-01  -104.79    0.00000E+00     0.00
   85.00   340.00       2.18 -999.99    2.18    0.00000     0.00  LINEAR    6.50431E-01  -106.68    0.00000E+00     0.00
   90.00   340.00       2.22 -999.99    2.22    0.00000     0.00  LINEAR    6.53727E-01  -107.33    0.00000E+00     0.00
   95.00   340.00       2.16 -999.99    2.16    0.00000     0.00  LINEAR    6.49483E-01  -106.74    0.00000E+00     0.00
  100.00   340.00       2.01 -999.99    2.01    0.00000     0.00  LINEAR    6.37843E-01  -104.90    0.00000E+00     0.00
  105.00   340.00       1.75 -999.99    1.75    0.00000     0.00  LINEAR    6.19193E-01  -101.83    0.00000E+00     0.00
  110.00   340.00       1.39 -999.99    1.39    0.00000     0.00  LINEAR    5.94133E-01   -97.55    0.00000E+00     0.00
  115.00   340.00       0.93 -999.99    0.93    0.00000     0.00  LINEAR    5.63432E-01   -92.10    0.00000E+00     0.00
  120.00   340.00       0.37 -999.99    0.37    0.00000     0.00  LINEAR    5.27976E-01   -85.52    0.00000E+00     0.00
  125.00   340.00      -0.31 -999.99   -0.31    0.00000     0.00  LINEAR    4.88705E-01   -77.87    0.00000E+00     0.00
  130.00   340.00      -1.09 -999.99   -1.09    0.00000     0.00  LINEAR    4.46562E-01   -69.19    0.00000E+00     0.00
  135.00   340.00      -1.99 -999.99   -1.99    0.00000     0.00  LINEAR    4.02432E-01   -59.56    0.00000E+00     0.00
  140.00   340.00      -3.03 -999.99   -3.03    0.00000     0.00  LINEAR    3.57106E-01   -49.05    0.00000E+00     0.00
  145.00   340.00      -4.22 -999.99   -4.22    0.00000     0.00  LINEAR    3.11242E-01   -37.74    0.00000E+00     0.00
  150.00   340.00      -5.61 -999.99   -5.61    0.00000     0.00  LINEAR    2.65355E-01   -25.72    0.00000E+00     0.00
  155.00   340.00      -7.25 -999.99   -7.25    0.00000     0.00  LINEAR    2.19802E-01   -13.09    0.00000E+00     0.00
  160.00   340.00      -9.24 -999.99   -9.24    0.00000     0.00  LINEAR    1.74792E-01     0.06    0.00000E+00     0.00
  165.00   340.00     -11.78 -999.99  -11.78    0.00000     0.00  LINEAR    1.30395E-01    13.63    0.00000E+00     0.00
  170.00   340.00     -15.34 -999.99  -15.34    0.00000     0.00  LINEAR    8.65659E-02    27.52    0.00000E+00     0.00
  175.00   340.00     -21.38 -999.99  -21.38    0.00000     0.00  LINEAR    4.31673E-02    41.60    0.00000E+00     0.00
  180.00   340.00    -999.99 -999.99 -999.99    0.00000     0.00            5.04429E-12  -124.21    0.00000E+00     0.00
    0.00   350.00    -999.99 -999.99 -999.99    0.00000     0.00            0.00000E+00     0.00    0.00000E+00     0.00
    5.00   350.00     -21.22 -999.99  -21.22    0.00000     0.00  LINEAR    4.40036E-02    41.61    0.00000E+00     0.00
   10.00   350.00     -15.18 -999.99  -15.18    0.00000     0.00  LINEAR    8.82177E-02    26.84    0.00000E+00     0.00
   15.00   350.00     -11.62 -999.99  -11.62    0.00000     0.00  LINEAR    1.32821E-01    12.27    0.00000E+00     0.00
   20.00   350.00      -9.08 -999.99   -9.08    0.00000     0.00  LINEAR    1.77931E-01    -1.97    0.00000E+00     0.00
   25.00   350.00      -7.10 -999.99   -7.10    0.00000     0.00  LINEAR    2.23573E-01   -15.78    0.00000E+00     0.00
   30.00   350.00      -5.47 -999.99   -5.47    0.00000     0.00  LINEAR    2.69656E-01   -29.05    0.00000E+00     0.00
   35.00   350.00      -4.09 -999.99   -4.09    0.00000     0.00  LINEAR    3.15956E-01   -41.68    0.00000E+00     0.00
   40.00   350.00      -2.91 -999.99   -2.91    0.00000     0.00  LINEAR    3.62099E-01   -53.56    0.00000E+00     0.00
   45.00   350.00      -1.88 -999.99   -1.88    0.00000     0.00  LINEAR    4.07560E-01   -64.62    0.00000E+00     0.00
   50.00   350.00      -0.99 -999.99   -0.99    0.00000     0.00  LINEAR    4.51668E-01   -74.76    0.00000E+00     0.00
   55.00   350.00      -0.22 -999.99   -0.22    0.00000     0.00  LINEAR    4.93630E-01   -83.90    0.00000E+00     0.00
   60.00   350.00       0.44 -999.99    0.44    0.00000     0.00  LINEAR    5.32560E-01   -91.97    0.00000E+00     0.00
   65.00   350.00       0.99 -999.99    0.99    0.00000     0.00  LINEAR    5.67525E-01   -98.92    0.00000E+00     0.00
   70.00   350.00       1.44 -999.99    1.44    0.00000     0.00  LINEAR    5.97595E-01  -104.68    0.00000E+00     0.00
   75.00   350.00       1.79 -999.99    1.79    0.00000     0.00  LINEAR    6.21903E-01  -109.21    0.00000E+00     0.00
   80.00   350.00       2.03 -999.99    2.03    0.00000     0.00  LINEAR    6.39705E-01  -112.48    0.00000E+00     0.00
   85.00   350.00       2.18 -999.99    2.18    0.00000     0.00  LINEAR    6.50431E-01  -114.47    0.00000E+00     0.00
   90.00   350.00       2.22 -999.99    2.22    0.00000     0.00  LINEAR    6.53727E-01  -115.15    0.00000E+00     0.00
   95.00   350.00       2.16 -999.99    2.16    0.00000     0.00  LINEAR    6.49483E-01  -114.52    0.00000E+00     0.00
  100.00   350.00       2.01 -999.99    2.01    0.00000     0.00  LINEAR    6.37843E-01  -112.59    0.00000E+00     0.00
  105.00   350.00       1.75 -999.99    1.75    0.00000     0.00  LINEAR    6.19193E-01  -109.37    0.00000E+00     0.00
  110.00   350.00       1.39 -999.99    1.39    0.00000     0.00  LINEAR    5.94133E-01  -104.89    0.00000E+00     0.00
  115.00   350.00       0.93 -999.99    0.93    0.00000     0.00  LINEAR    5.63432E-01   -99.18    0.00000E+00     0.00
  120.00   350.00       0.37 -999.99    0.37    0.00000     0.00  LINEAR    5.27976E-01   -92.29    0.00000E+00     0.00
  125.00   350.00      -0.31 -999.99   -0.31    0.00000     0.00  LINEAR    4.88705E-01   -84.26    0.00000E+00     0.00
  130.00   350.00      -1.09 -999.99   -1.09    0.00000     0.00  LINEAR    4.46562E-01   -75.17    0.00000E+00     0.00
  135.00   350.00      -1.99 -999.99   -1.99    0.00000     0.00  LINEAR    4.02432E-01   -65.08    0.00000E+00     0.00
  140.00   350.00      -3.03 -999.99   -3.03    0.00000     0.00  LINEAR    3.57106E-01   -54.07    0.00000E+00     0.00
  145.00   350.00      -4.22 -999.99   -4.22    0.00000     0.00  LINEAR    3.11242E-01   -42.22    0.00000E+00     0.00
  150.00   350.00      -5.61 -999.99   -5.61    0.00000     0.00  LINEAR    2.65355E-01   -29.63    0.00000E+00     0.00
  155.00   350.00      -7.25 -999.99   -7.25    0.00000     0.00  LINEAR    2.19802E-01   -16.39    0.00000E+00     0.00
  160.00   350.00      -9.24 -999.99   -9.24    0.00000     0.00  LINEAR    1.74792E-01    -2.61    0.00000E+00     0.00
  165.00   350.00     -11.78 -999.99  -11.78    0.00000     0.00  LINEAR    1.30395E-01    11.61    0.00000E+00     0.00
  170.00   350.00     -15.34 -999.99  -15.34    0.00000     0.00  LINEAR    8.65659E-02    26.16    0.00000E+00     0.00
  175.00   350.00     -21.38 -999.99  -21.38    0.00000     0.00  LINEAR    4.31673E-02    40.92    0.00000E+00     0.00
  180.00   350.00    -999.99 -999.99 -999.99    0.00000     0.00            5.04429E-12  -124.21    0.00000E+00     0.00
    0.00   360.00    -999.99 -999.99 -999.99    0.00000     0.00            0.00000E+00     0.00    0.00000E+00     0.00
    5.00   360.00     -21.22 -999.99  -21.22    0.00000     0.00  LINEAR    4.40036E-02    41.38    0.00000E+00     0.00
   10.00   360.00     -15.18 -999.99  -15.18    0.00000     0.00  LINEAR    8.82177E-02    26.38    0.00000E+00     0.00
   15.00   360.00     -11.62 -999.99  -11.62    0.00000     0.00  LINEAR    1.32821E-01    11.59    0.00000E+00     0.00
   20.00   360.00      -9.08 -999.99   -9.08    0.00000     0.00  LINEAR    1.77931E-01    -2.87    0.00000E+00     0.00
   25.00   360.00      -7.10 -999.99   -7.10    0.00000     0.00  LINEAR    2.23573E-01   -16.89    0.00000E+00     0.00
   30.00   360.00      -5.47 -999.99   -5.47    0.00000     0.00  LINEAR    2.69656E-01   -30.36    0.00000E+00     0.00
   35.00   360.00      -4.09 -999.99   -4.09    0.00000     0.00  LINEAR    3.15956E-01   -43.18    0.00000E+00     0.00
   40.00   360.00      -2.91 -999.99   -2.91    0.00000     0.00  LINEAR    3.62099E-01   -55.26    0.00000E+00     0.00
   45.00   360.00      -1.88 -999.99   -1.88    0.00000     0.00  LINEAR    4.07560E-01   -66.48    0.00000E+00     0.00
   50.00   360.00      -0.99 -999.99   -0.99    0.00000     0.00  LINEAR    4.51668E-01   -76.77    0.00000E+00     0.00
   55.00   360.00      -0.22 -999.99   -0.22    0.00000     0.00  LINEAR    4.93630E-01   -86.05    0.00000E+00     0.00
   60.00   360.00       0.44 -999.99    0.44    0.00000     0.00  LINEAR    5.32560E-01   -94.25    0.00000E+00     0.00
   65.00   360.00       0.99 -999.99    0.99    0.00000     0.00  LINEAR    5.67525E-01  -101.30    0.00000E+00     0.00
   70.00   360.00       1.44 -999.99    1.44    0.00000     0.00  LINEAR    5.97595E-01  -107.15    0.00000E+00     0.00
   75.00   360.00       1.79 -999.99    1.79    0.00000     0.00  LINEAR    6.21903E-01  -111.75    0.00000E+00     0.00
   80.00   360.00       2.03 -999.99    2.03    0.00000     0.00  LINEAR    6.39705E-01  -115.07    0.00000E+00     0.00
   85.00   360.00       2.18 -999.99    2.18    0.00000     0.00  LINEAR    6.50431E-01  -117.09    0.00000E+00     0.00
   90.00   360.00       2.22 -999.99    2.22    0.00000     0.00  LINEAR    6.53727E-01  -117.78    0.00000E+00     0.00
   95.00   360.00       2.16 -999.99    2.16    0.00000     0.00  LINEAR    6.49483E-01  -117.14    0.00000E+00     0.00
  100.00   360.00       2.01 -999.99    2.01    0.00000     0.00  LINEAR    6.37843E-01  -115.18    0.00000E+00     0.00
  105.00   360.00       1.75 -999.99    1.75    0.00000     0.00  LINEAR    6.19193E-01  -111.91    0.00000E+00     0.00
  110.00   360.00       1.39 -999.99    1.39    0.00000     0.00  LINEAR    5.94133E-01  -107.36    0.00000E+00     0.00
  115.00   360.00       0.93 -999.99    0.93    0.00000     0.00  LINEAR    5.63432E-01  -101.57    0.00000E+00     0.00
  120.00   360.00       0.37 -999.99    0.37    0.00000     0.00  LINEAR    5.27976E-01   -94.57    0.00000E+00     0.00
  125.00   360.00      -0.31 -999.99   -0.31    0.00000     0.00  LINEAR    4.88705E-01   -86.42    0.00000E+00     0.00
  130.00   360.00      -1.09 -999.99   -1.09    0.00000     0.00  LINEAR    4.46562E-01   -77.19    0.00000E+00     0.00
  135.00   360.00      -1.99 -999.99   -1.99    0.00000     0.00  LINEAR    4.02432E-01   -66.94    0.00000E+00     0.00
  140.00   360.00      -3.03 -999.99   -3.03    0.00000     0.00  LINEAR    3.57106E-01   -55.76    0.00000E+00     0.00
  145.00   360.00      -4.22 -999.99   -4.22    0.00000     0.00  LINEAR    3.11242E-01   -43.73    0.00000E+00     0.00
  150.00   360.00      -5.61 -999.99   -5.61    0.00000     0.00  LINEAR    2.65355E-01   -30.94    0.00000E+00     0.00
  155.00   360.00      -7.25 -999.99   -7.25    0.00000     0.00  LINEAR    2.19802E-01   -17.50    0.00000E+00     0.00
  160.00   360.00      -9.24 -999.99   -9.24    0.00000     0.00  LINEAR    1.74792E-01    -3.51    0.00000E+00     0.00
  165.00   360.00     -11.78 -999.99  -11.78    0.00000     0.00  LINEAR    1.30395E-01    10.93    0.00000E+00     0.00
  170.00   360.00     -15.34 -999.99  -15.34    0.00000     0.00  LINEAR    8.65659E-02    25.70    0.00000E+00     0.00
  175.00   360.00     -21.38 -999.99  -21.38    0.00000     0.00  LINEAR    4.31673E-02    40.69    0.00000E+00     0.00
  180.00   360.00    -999.99 -999.99 -999.99    0.00000     0.00            5.04429E-12  -124.21    0.00000E+00     0.00


   AVERAGE POWER GAIN= 1.00646E+00       SOLID ANGLE USED IN AVERAGING=( 4.0000)*PI STERADIANS.








 ***** DATA CARD NO.  5   EN   0    37    37  1003  0.00000E+00  0.00000E+00  5.00000E+00  1.00000E+01  0.00000E+00  0.00000E+00

 RUN TIME =     0.031
