1



                                 *********************************************

                                    NUMERICAL ELECTROMAGNETICS CODE (NEC-2D)

                                 *********************************************




                                     - - - - COMMENTS - - - -


                                                                                                     
                                                                                                     




                                 - - - STRUCTURE SPECIFICATION - - -

                                     COORDINATES MUST BE INPUT IN
                                     METERS OR BE SCALED TO METERS
                                     BEFORE STRUCTURE INPUT IS ENDED


  WIRE                                                                               NO. OF    FIRST  LAST     TAG
  NO.        X1         Y1         Z1          X2         Y2         Z2      RADIUS   SEG.     SEG.   SEG.     NO.
     1    0.10600    0.00000    0.19700     0.10400    0.01800    0.19700    0.00210      1        1     1       1
     2    0.10400    0.01800    0.19700     0.10000    0.03600    0.19700    0.00210      1        2     2       1
     3    0.10000    0.03600    0.19700     0.09200    0.05200    0.19700    0.00210      1        3     3       1
     4    0.09200    0.05200    0.19700     0.08200    0.06700    0.19700    0.00210      1        4     4       1
     5    0.08200    0.06700    0.19700     0.06900    0.08000    0.19700    0.00210      1        5     5       1
     6    0.06900    0.08000    0.19700     0.05500    0.09100    0.19700    0.00210      1        6     6       1
     7    0.05500    0.09100    0.19700     0.03800    0.09900    0.19700    0.00210      1        7     7       1
     8    0.03800    0.09900    0.19700     0.02100    0.10400    0.19700    0.00210      1        8     8       1
     9    0.02100    0.10400    0.19700     0.00300    0.10600    0.19700    0.00210      1        9     9       1
    10    0.00300    0.10600    0.19700    -0.01500    0.10500    0.19700    0.00210      1       10    10       1
    11   -0.01500    0.10500    0.19700    -0.03300    0.10100    0.19700    0.00210      1       11    11       1
    12   -0.03300    0.10100    0.19700    -0.05000    0.09400    0.19700    0.00210      1       12    12       1
    13   -0.05000    0.09400    0.19700    -0.06500    0.08400    0.19700    0.00210      1       13    13       1
    14   -0.06500    0.08400    0.19700    -0.07800    0.07100    0.19700    0.00210      1       14    14       1
    15   -0.07800    0.07100    0.19700    -0.08900    0.05700    0.19700    0.00210      1       15    15       1
    16   -0.08900    0.05700    0.19700    -0.09800    0.04100    0.19700    0.00210      1       16    16       1
    17   -0.09800    0.04100    0.19700    -0.10300    0.02400    0.19700    0.00210      1       17    17       1
    18   -0.10300    0.02400    0.19700    -0.10600    0.00600    0.19700    0.00210      1       18    18       1
    19   -0.10600    0.00600    0.19700    -0.10500   -0.01300    0.19700    0.00210      1       19    19       1
    20   -0.10500   -0.01300    0.19700    -0.10200   -0.03000    0.19700    0.00210      1       20    20       1
    21   -0.10200   -0.03000    0.19700    -0.09500   -0.04700    0.19700    0.00210      1       21    21       1
    22   -0.09500   -0.04700    0.19700    -0.08500   -0.06300    0.19700    0.00210      1       22    22       1
    23   -0.08500   -0.06300    0.19700    -0.07300   -0.07600    0.19700    0.00210      1       23    23       1
    24   -0.07300   -0.07600    0.19700    -0.05900   -0.08800    0.19700    0.00210      1       24    24       1
    25   -0.05900   -0.08800    0.19700    -0.04300   -0.09700    0.19700    0.00210      1       25    25       1
    26   -0.04300   -0.09700    0.19700    -0.02600   -0.10300    0.19700    0.00210      1       26    26       1
    27   -0.02600   -0.10300    0.19700    -0.00800   -0.10600    0.19700    0.00210      1       27    27       1
    28   -0.00800   -0.10600    0.19700     0.01000   -0.10500    0.19700    0.00210      1       28    28       1
    29    0.01000   -0.10500    0.19700     0.02800   -0.10200    0.19700    0.00210      1       29    29       1
    30    0.02800   -0.10200    0.19700     0.04500   -0.09600    0.19700    0.00210      1       30    30       1
    31    0.04500   -0.09600    0.19700     0.06000   -0.08700    0.19700    0.00210      1       31    31       1
    32    0.06000   -0.08700    0.19700     0.07400   -0.07500    0.19700    0.00210      1       32    32       1
    33    0.07400   -0.07500    0.19700     0.08600   -0.06200    0.19700    0.00210      1       33    33       1
    34    0.08600   -0.06200    0.19700     0.09500   -0.04600    0.19700    0.00210      1       34    34       1
    35    0.09500   -0.04600    0.19700     0.10200   -0.02900    0.19700    0.00210      1       35    35       1
    36    0.10200   -0.02900    0.19700     0.10500   -0.01100    0.19700    0.00210      1       36    36     999
    37    0.10600    0.00000    0.00000     0.10400    0.01800    0.00000    0.00210      1       37    37       2
    38    0.10400    0.01800    0.00000     0.10000    0.03600    0.00000    0.00210      1       38    38       2
    39    0.10000    0.03600    0.00000     0.09200    0.05200    0.00000    0.00210      1       39    39       2
    40    0.09200    0.05200    0.00000     0.08200    0.06700    0.00000    0.00210      1       40    40       2
    41    0.08200    0.06700    0.00000     0.06900    0.08000    0.00000    0.00210      1       41    41       2
    42    0.06900    0.08000    0.00000     0.05500    0.09100    0.00000    0.00210      1       42    42       2
    43    0.05500    0.09100    0.00000     0.03800    0.09900    0.00000    0.00210      1       43    43       2
    44    0.03800    0.09900    0.00000     0.02100    0.10400    0.00000    0.00210      1       44    44       2
    45    0.02100    0.10400    0.00000     0.00300    0.10600    0.00000    0.00210      1       45    45       2
    46    0.00300    0.10600    0.00000    -0.01500    0.10500    0.00000    0.00210      1       46    46       2
    47   -0.01500    0.10500    0.00000    -0.03300    0.10100    0.00000    0.00210      1       47    47       2
    48   -0.03300    0.10100    0.00000    -0.05000    0.09400    0.00000    0.00210      1       48    48       2
    49   -0.05000    0.09400    0.00000    -0.06500    0.08400    0.00000    0.00210      1       49    49       2
    50   -0.06500    0.08400    0.00000    -0.07800    0.07100    0.00000    0.00210      1       50    50       2
    51   -0.07800    0.07100    0.00000    -0.08900    0.05700    0.00000    0.00210      1       51    51       2
    52   -0.08900    0.05700    0.00000    -0.09800    0.04100    0.00000    0.00210      1       52    52       2
    53   -0.09800    0.04100    0.00000    -0.10300    0.02400    0.00000    0.00210      1       53    53       2
    54   -0.10300    0.02400    0.00000    -0.10600    0.00600    0.00000    0.00210      1       54    54       2
    55   -0.10600    0.00600    0.00000    -0.10500   -0.01300    0.00000    0.00210      1       55    55       2
    56   -0.10500   -0.01300    0.00000    -0.10200   -0.03000    0.00000    0.00210      1       56    56       2
    57   -0.10200   -0.03000    0.00000    -0.09500   -0.04700    0.00000    0.00210      1       57    57       2
    58   -0.09500   -0.04700    0.00000    -0.08500   -0.06300    0.00000    0.00210      1       58    58       2
    59   -0.08500   -0.06300    0.00000    -0.07300   -0.07600    0.00000    0.00210      1       59    59       2
    60   -0.07300   -0.07600    0.00000    -0.05900   -0.08800    0.00000    0.00210      1       60    60       2
    61   -0.05900   -0.08800    0.00000    -0.04300   -0.09700    0.00000    0.00210      1       61    61       2
    62   -0.04300   -0.09700    0.00000    -0.02600   -0.10300    0.00000    0.00210      1       62    62       2
    63   -0.02600   -0.10300    0.00000    -0.00800   -0.10600    0.00000    0.00210      1       63    63       2
    64   -0.00800   -0.10600    0.00000     0.01000   -0.10500    0.00000    0.00210      1       64    64       2
    65    0.01000   -0.10500    0.00000     0.02800   -0.10200    0.00000    0.00210      1       65    65       2
    66    0.02800   -0.10200    0.00000     0.04500   -0.09600    0.00000    0.00210      1       66    66       2
    67    0.04500   -0.09600    0.00000     0.06000   -0.08700    0.00000    0.00210      1       67    67       2
    68    0.06000   -0.08700    0.00000     0.07400   -0.07500    0.00000    0.00210      1       68    68       2
    69    0.07400   -0.07500    0.00000     0.08600   -0.06200    0.00000    0.00210      1       69    69       2
    70    0.08600   -0.06200    0.00000     0.09500   -0.04600    0.00000    0.00210      1       70    70       2
    71    0.09500   -0.04600    0.00000     0.10200   -0.02900    0.00000    0.00210      1       71    71       2
    72    0.10200   -0.02900    0.00000     0.10500   -0.01100    0.00000    0.00210      1       72    72       2
    73    0.10600    0.00000    0.00000     0.10600    0.00000    0.19700    0.00210      4       73    76       3
    74    0.10500   -0.01100    0.00000     0.10500   -0.01100    0.19700    0.00210      4       77    80       4
      THE STRUCTURE HAS BEEN MOVED, MOVE DATA CARD IS -
        0    0   0.00000   0.00000   0.00000   0.00000   0.00000   8.00000   0.00000

   GROUND PLANE SPECIFIED.

   TOTAL SEGMENTS USED=   80     NO. SEG. IN A SYMMETRIC CELL=   80     SYMMETRY FLAG=  0


         - MULTIPLE WIRE JUNCTIONS -
 JUNCTION    SEGMENTS  (- FOR END 1, + FOR END 2)
  NONE




                                 - - - - SEGMENTATION DATA - - - -

                                        COORDINATES IN METERS

                         I+ AND I- INDICATE THE SEGMENTS BEFORE AND AFTER I


  SEG.   COORDINATES OF SEG. CENTER     SEG.     ORIENTATION ANGLES    WIRE    CONNECTION DATA   TAG
  NO.       X         Y         Z       LENGTH     ALPHA     BETA      RADIUS    I-   I    I+    NO.
     1   0.10500   0.00900   8.19700   0.01811    0.00000  96.34019   0.00210    76    1    2      1
     2   0.10200   0.02700   8.19700   0.01844    0.00000 102.52881   0.00210     1    2    3      1
     3   0.09600   0.04400   8.19700   0.01789    0.00000 116.56505   0.00210     2    3    4      1
     4   0.08700   0.05950   8.19700   0.01803    0.00000 123.69007   0.00210     3    4    5      1
     5   0.07550   0.07350   8.19700   0.01838    0.00000 135.00000   0.00210     4    5    6      1
     6   0.06200   0.08550   8.19700   0.01780    0.00000 141.84277   0.00210     5    6    7      1
     7   0.04650   0.09500   8.19700   0.01879    0.00000 154.79888   0.00210     6    7    8      1
     8   0.02950   0.10150   8.19700   0.01772    0.00000 163.61046   0.00210     7    8    9      1
     9   0.01200   0.10500   8.19700   0.01811    0.00000 173.65981   0.00210     8    9   10      1
    10  -0.00600   0.10550   8.19700   0.01803    0.00000-176.82017   0.00210     9   10   11      1
    11  -0.02400   0.10300   8.19700   0.01844    0.00000-167.47119   0.00210    10   11   12      1
    12  -0.04150   0.09750   8.19700   0.01838    0.00000-157.61986   0.00210    11   12   13      1
    13  -0.05750   0.08900   8.19700   0.01803    0.00000-146.30993   0.00210    12   13   14      1
    14  -0.07150   0.07750   8.19700   0.01838    0.00000-135.00000   0.00210    13   14   15      1
    15  -0.08350   0.06400   8.19700   0.01780    0.00000-128.15723   0.00210    14   15   16      1
    16  -0.09350   0.04900   8.19700   0.01836    0.00000-119.35775   0.00210    15   16   17      1
    17  -0.10050   0.03250   8.19700   0.01772    0.00000-106.38954   0.00210    16   17   18      1
    18  -0.10450   0.01500   8.19700   0.01825    0.00000 -99.46232   0.00210    17   18   19      1
    19  -0.10550  -0.00350   8.19700   0.01903    0.00000 -86.98721   0.00210    18   19   20      1
    20  -0.10350  -0.02150   8.19700   0.01726    0.00000 -79.99202   0.00210    19   20   21      1
    21  -0.09850  -0.03850   8.19700   0.01838    0.00000 -67.61986   0.00210    20   21   22      1
    22  -0.09000  -0.05500   8.19700   0.01887    0.00000 -57.99462   0.00210    21   22   23      1
    23  -0.07900  -0.06950   8.19700   0.01769    0.00000 -47.29061   0.00210    22   23   24      1
    24  -0.06600  -0.08200   8.19700   0.01844    0.00000 -40.60129   0.00210    23   24   25      1
    25  -0.05100  -0.09250   8.19700   0.01836    0.00000 -29.35775   0.00210    24   25   26      1
    26  -0.03450  -0.10000   8.19700   0.01803    0.00000 -19.44003   0.00210    25   26   27      1
    27  -0.01700  -0.10450   8.19700   0.01825    0.00000  -9.46232   0.00210    26   27   28      1
    28   0.00100  -0.10550   8.19700   0.01803    0.00000   3.17983   0.00210    27   28   29      1
    29   0.01900  -0.10350   8.19700   0.01825    0.00000   9.46232   0.00210    28   29   30      1
    30   0.03650  -0.09900   8.19700   0.01803    0.00000  19.44003   0.00210    29   30   31      1
    31   0.05250  -0.09150   8.19700   0.01749    0.00000  30.96376   0.00210    30   31   32      1
    32   0.06700  -0.08100   8.19700   0.01844    0.00000  40.60129   0.00210    31   32   33      1
    33   0.08000  -0.06850   8.19700   0.01769    0.00000  47.29061   0.00210    32   33   34      1
    34   0.09050  -0.05400   8.19700   0.01836    0.00000  60.64225   0.00210    33   34   35      1
    35   0.09850  -0.03750   8.19700   0.01838    0.00000  67.61986   0.00210    34   35   36      1
    36   0.10350  -0.02000   8.19700   0.01825    0.00000  80.53768   0.00210    35   36  -80    999
    37   0.10500   0.00900   8.00000   0.01811    0.00000  96.34019   0.00210   -73   37   38      2
    38   0.10200   0.02700   8.00000   0.01844    0.00000 102.52881   0.00210    37   38   39      2
    39   0.09600   0.04400   8.00000   0.01789    0.00000 116.56505   0.00210    38   39   40      2
    40   0.08700   0.05950   8.00000   0.01803    0.00000 123.69007   0.00210    39   40   41      2
    41   0.07550   0.07350   8.00000   0.01838    0.00000 135.00000   0.00210    40   41   42      2
    42   0.06200   0.08550   8.00000   0.01780    0.00000 141.84277   0.00210    41   42   43      2
    43   0.04650   0.09500   8.00000   0.01879    0.00000 154.79888   0.00210    42   43   44      2
    44   0.02950   0.10150   8.00000   0.01772    0.00000 163.61046   0.00210    43   44   45      2
    45   0.01200   0.10500   8.00000   0.01811    0.00000 173.65981   0.00210    44   45   46      2
    46  -0.00600   0.10550   8.00000   0.01803    0.00000-176.82017   0.00210    45   46   47      2
    47  -0.02400   0.10300   8.00000   0.01844    0.00000-167.47119   0.00210    46   47   48      2
    48  -0.04150   0.09750   8.00000   0.01838    0.00000-157.61986   0.00210    47   48   49      2
    49  -0.05750   0.08900   8.00000   0.01803    0.00000-146.30993   0.00210    48   49   50      2
    50  -0.07150   0.07750   8.00000   0.01838    0.00000-135.00000   0.00210    49   50   51      2
    51  -0.08350   0.06400   8.00000   0.01780    0.00000-128.15723   0.00210    50   51   52      2
    52  -0.09350   0.04900   8.00000   0.01836    0.00000-119.35775   0.00210    51   52   53      2
    53  -0.10050   0.03250   8.00000   0.01772    0.00000-106.38954   0.00210    52   53   54      2
    54  -0.10450   0.01500   8.00000   0.01825    0.00000 -99.46232   0.00210    53   54   55      2
    55  -0.10550  -0.00350   8.00000   0.01903    0.00000 -86.98721   0.00210    54   55   56      2
    56  -0.10350  -0.02150   8.00000   0.01726    0.00000 -79.99202   0.00210    55   56   57      2
    57  -0.09850  -0.03850   8.00000   0.01838    0.00000 -67.61986   0.00210    56   57   58      2
    58  -0.09000  -0.05500   8.00000   0.01887    0.00000 -57.99462   0.00210    57   58   59      2
    59  -0.07900  -0.06950   8.00000   0.01769    0.00000 -47.29061   0.00210    58   59   60      2
    60  -0.06600  -0.08200   8.00000   0.01844    0.00000 -40.60129   0.00210    59   60   61      2
    61  -0.05100  -0.09250   8.00000   0.01836    0.00000 -29.35775   0.00210    60   61   62      2
    62  -0.03450  -0.10000   8.00000   0.01803    0.00000 -19.44003   0.00210    61   62   63      2
    63  -0.01700  -0.10450   8.00000   0.01825    0.00000  -9.46232   0.00210    62   63   64      2
    64   0.00100  -0.10550   8.00000   0.01803    0.00000   3.17983   0.00210    63   64   65      2
    65   0.01900  -0.10350   8.00000   0.01825    0.00000   9.46232   0.00210    64   65   66      2
    66   0.03650  -0.09900   8.00000   0.01803    0.00000  19.44003   0.00210    65   66   67      2
    67   0.05250  -0.09150   8.00000   0.01749    0.00000  30.96376   0.00210    66   67   68      2
    68   0.06700  -0.08100   8.00000   0.01844    0.00000  40.60129   0.00210    67   68   69      2
    69   0.08000  -0.06850   8.00000   0.01769    0.00000  47.29061   0.00210    68   69   70      2
    70   0.09050  -0.05400   8.00000   0.01836    0.00000  60.64225   0.00210    69   70   71      2
    71   0.09850  -0.03750   8.00000   0.01838    0.00000  67.61986   0.00210    70   71   72      2
    72   0.10350  -0.02000   8.00000   0.01825    0.00000  80.53768   0.00210    71   72   77      2
    73   0.10600   0.00000   8.02463   0.04925   90.00000   0.00000   0.00210   -37   73   74      3
    74   0.10600   0.00000   8.07388   0.04925   90.00000   0.00000   0.00210    73   74   75      3
    75   0.10600   0.00000   8.12312   0.04925   90.00000   0.00000   0.00210    74   75   76      3
    76   0.10600   0.00000   8.17237   0.04925   90.00000   0.00000   0.00210    75   76    1      3
    77   0.10500  -0.01100   8.02463   0.04925   90.00000   0.00000   0.00210    72   77   78      4
    78   0.10500  -0.01100   8.07388   0.04925   90.00000   0.00000   0.00210    77   78   79      4
    79   0.10500  -0.01100   8.12312   0.04925   90.00000   0.00000   0.00210    78   79   80      4
    80   0.10500  -0.01100   8.17237   0.04925   90.00000   0.00000   0.00210    79   80  -36      4






 ***** DATA CARD NO.  1   GN   2     0     0     0  1.10000E+01  1.00000E-02  0.00000E+00  0.00000E+00  0.00000E+00  0.00000E+00
 ***** DATA CARD NO.  2   EK   0     0     0     0  0.00000E+00  0.00000E+00  0.00000E+00  0.00000E+00  0.00000E+00  0.00000E+00
 ***** DATA CARD NO.  3   EX   0   999     1     0  1.00000E+00  0.00000E+00  0.00000E+00  0.00000E+00  0.00000E+00  0.00000E+00
 ***** DATA CARD NO.  4   FR   0     1     0     0  1.44200E+02  0.00000E+00  0.00000E+00  0.00000E+00  0.00000E+00  0.00000E+00
 ***** DATA CARD NO.  5   RP   0    19    37  1003  0.00000E+00  0.00000E+00  5.00000E+00  1.00000E+01  0.00000E+00  0.00000E+00




                                 - - - - - - FREQUENCY - - - - - -

                                    FREQUENCY= 1.4420E+02 MHZ
                                    WAVELENGTH= 2.0791E+00 METERS




                    APPROXIMATE INTEGRATION EMPLOYED FOR SEGMENTS MORE THAN   1.000 WAVELENGTHS APART

                    THE EXTENDED THIN WIRE KERNEL WILL BE USED



                               - - - STRUCTURE IMPEDANCE LOADING - - -

                                   THIS STRUCTURE IS NOT LOADED



                                  - - - ANTENNA ENVIRONMENT - - -

                                        FINITE GROUND.  SOMMERFELD SOLUTION
                                        RELATIVE DIELECTRIC CONST.= 11.000
                                        CONDUCTIVITY= 1.000E-02 MHOS/METER
                                        COMPLEX DIELECTRIC CONSTANT= 1.10000E+01-1.24660E+00



                                - - - MATRIX TIMING - - -

                        FILL=    0.016 SEC.,  FACTOR=    0.000 SEC.



                                          - - - ANTENNA INPUT PARAMETERS - - -

   TAG   SEG.    VOLTAGE (VOLTS)         CURRENT (AMPS)         IMPEDANCE (OHMS)        ADMITTANCE (MHOS)      POWER
   NO.   NO.    REAL        IMAG.       REAL        IMAG.       REAL        IMAG.       REAL        IMAG.     (WATTS)
   999    36 1.00000E+00 0.00000E+00 3.51325E-02-2.89372E-03 2.82719E+01 2.32864E+00 3.51325E-02-2.89372E-03 1.75662E-02



                             - - - CURRENTS AND LOCATION - - -

                                 DISTANCES IN WAVELENGTHS


  SEG.  TAG    COORD. OF SEG. CENTER     SEG.            - - - CURRENT (AMPS) - - -
  NO.   NO.     X        Y        Z      LENGTH     REAL        IMAG.       MAG.        PHASE
     1    1   0.0505   0.0043   3.9427  0.00871   3.4749E-02 -8.5708E-03  3.5790E-02  -13.855
     2    1   0.0491   0.0130   3.9427  0.00887   3.8437E-02 -9.1177E-03  3.9504E-02  -13.344
     3    1   0.0462   0.0212   3.9427  0.00860   4.1479E-02 -9.5585E-03  4.2566E-02  -12.977
     4    1   0.0418   0.0286   3.9427  0.00867   4.4164E-02 -9.9382E-03  4.5269E-02  -12.682
     5    1   0.0363   0.0354   3.9427  0.00884   4.6631E-02 -1.0277E-02  4.7751E-02  -12.429
     6    1   0.0298   0.0411   3.9427  0.00856   4.8867E-02 -1.0574E-02  4.9998E-02  -12.210
     7    1   0.0224   0.0457   3.9427  0.00904   5.0929E-02 -1.0836E-02  5.2069E-02  -12.012
     8    1   0.0142   0.0488   3.9427  0.00852   5.2800E-02 -1.1062E-02  5.3947E-02  -11.832
     9    1   0.0058   0.0505   3.9427  0.00871   5.4464E-02 -1.1247E-02  5.5613E-02  -11.668
    10    1  -0.0029   0.0507   3.9427  0.00867   5.5972E-02 -1.1399E-02  5.7121E-02  -11.511
    11    1  -0.0115   0.0495   3.9427  0.00887   5.7324E-02 -1.1516E-02  5.8469E-02  -11.359
    12    1  -0.0200   0.0469   3.9427  0.00884   5.8518E-02 -1.1597E-02  5.9656E-02  -11.210
    13    1  -0.0277   0.0428   3.9427  0.00867   5.9530E-02 -1.1640E-02  6.0657E-02  -11.064
    14    1  -0.0344   0.0373   3.9427  0.00884   6.0375E-02 -1.1645E-02  6.1488E-02  -10.917
    15    1  -0.0402   0.0308   3.9427  0.00856   6.1049E-02 -1.1612E-02  6.2144E-02  -10.770
    16    1  -0.0450   0.0236   3.9427  0.00883   6.1559E-02 -1.1542E-02  6.2632E-02  -10.619
    17    1  -0.0483   0.0156   3.9427  0.00852   6.1904E-02 -1.1434E-02  6.2951E-02  -10.465
    18    1  -0.0503   0.0072   3.9427  0.00878   6.2083E-02 -1.1290E-02  6.3101E-02  -10.307
    19    1  -0.0507  -0.0017   3.9427  0.00915   6.2097E-02 -1.1101E-02  6.3082E-02  -10.136
    20    1  -0.0498  -0.0103   3.9427  0.00830   6.1943E-02 -1.0880E-02  6.2891E-02   -9.962
    21    1  -0.0474  -0.0185   3.9427  0.00884   6.1629E-02 -1.0627E-02  6.2538E-02   -9.784
    22    1  -0.0433  -0.0265   3.9427  0.00908   6.1129E-02 -1.0327E-02  6.1995E-02   -9.589
    23    1  -0.0380  -0.0334   3.9427  0.00851   6.0468E-02 -9.9968E-03  6.1289E-02   -9.387
    24    1  -0.0317  -0.0394   3.9427  0.00887   5.9650E-02 -9.6384E-03  6.0423E-02   -9.179
    25    1  -0.0245  -0.0445   3.9427  0.00883   5.8647E-02 -9.2409E-03  5.9370E-02   -8.954
    26    1  -0.0166  -0.0481   3.9427  0.00867   5.7487E-02 -8.8171E-03  5.8159E-02   -8.720
    27    1  -0.0082  -0.0503   3.9427  0.00878   5.6162E-02 -8.3656E-03  5.6781E-02   -8.472
    28    1   0.0005  -0.0507   3.9427  0.00867   5.4667E-02 -7.8864E-03  5.5233E-02   -8.209
    29    1   0.0091  -0.0498   3.9427  0.00878   5.3000E-02 -7.3812E-03  5.3512E-02   -7.928
    30    1   0.0176  -0.0476   3.9427  0.00867   5.1156E-02 -6.8495E-03  5.1613E-02   -7.626
    31    1   0.0253  -0.0440   3.9427  0.00841   4.9171E-02 -6.3031E-03  4.9574E-02   -7.305
    32    1   0.0322  -0.0390   3.9427  0.00887   4.6971E-02 -5.7234E-03  4.7319E-02   -6.947
    33    1   0.0385  -0.0329   3.9427  0.00851   4.4543E-02 -5.1093E-03  4.4835E-02   -6.543
    34    1   0.0435  -0.0260   3.9427  0.00883   4.1871E-02 -4.4574E-03  4.2107E-02   -6.077
    35    1   0.0474  -0.0180   3.9427  0.00884   3.8809E-02 -3.7255E-03  3.8987E-02   -5.483
    36  999   0.0498  -0.0096   3.9427  0.00878   3.5132E-02 -2.8937E-03  3.5251E-02   -4.709
    37    2   0.0505   0.0043   3.8479  0.00871   3.5126E-02 -2.1005E-03  3.5188E-02   -3.422
    38    2   0.0491   0.0130   3.8479  0.00887   3.8801E-02 -2.7296E-03  3.8897E-02   -4.024
    39    2   0.0462   0.0212   3.8479  0.00860   4.1828E-02 -3.2831E-03  4.1957E-02   -4.488
    40    2   0.0418   0.0286   3.8479  0.00867   4.4497E-02 -3.7979E-03  4.4659E-02   -4.878
    41    2   0.0363   0.0354   3.8479  0.00884   4.6947E-02 -4.2959E-03  4.7143E-02   -5.228
    42    2   0.0298   0.0411   3.8479  0.00856   4.9165E-02 -4.7706E-03  4.9396E-02   -5.542
    43    2   0.0224   0.0457   3.8479  0.00904   5.1207E-02 -5.2321E-03  5.1473E-02   -5.834
    44    2   0.0142   0.0488   3.8479  0.00852   5.3058E-02 -5.6737E-03  5.3360E-02   -6.104
    45    2   0.0058   0.0505   3.8479  0.00871   5.4700E-02 -6.0885E-03  5.5038E-02   -6.351
    46    2  -0.0029   0.0507   3.8479  0.00867   5.6186E-02 -6.4872E-03  5.6559E-02   -6.586
    47    2  -0.0115   0.0495   3.8479  0.00887   5.7515E-02 -6.8683E-03  5.7924E-02   -6.810
    48    2  -0.0200   0.0469   3.8479  0.00884   5.8685E-02 -7.2303E-03  5.9129E-02   -7.024
    49    2  -0.0277   0.0428   3.8479  0.00867   5.9673E-02 -7.5641E-03  6.0150E-02   -7.224
    50    2  -0.0344   0.0373   3.8479  0.00884   6.0493E-02 -7.8723E-03  6.1003E-02   -7.415
    51    2  -0.0402   0.0308   3.8479  0.00856   6.1142E-02 -8.1514E-03  6.1683E-02   -7.594
    52    2  -0.0450   0.0236   3.8479  0.00883   6.1626E-02 -8.4029E-03  6.2196E-02   -7.765
    53    2  -0.0483   0.0156   3.8479  0.00852   6.1945E-02 -8.6255E-03  6.2542E-02   -7.927
    54    2  -0.0503   0.0072   3.8479  0.00878   6.2099E-02 -8.8178E-03  6.2722E-02   -8.082
    55    2  -0.0507  -0.0017   3.8479  0.00915   6.2086E-02 -8.9854E-03  6.2733E-02   -8.235
    56    2  -0.0498  -0.0103   3.8479  0.00830   6.1905E-02 -9.1170E-03  6.2572E-02   -8.378
    57    2  -0.0474  -0.0185   3.8479  0.00884   6.1565E-02 -9.2157E-03  6.2251E-02   -8.513
    58    2  -0.0433  -0.0265   3.8479  0.00908   6.1038E-02 -9.2861E-03  6.1741E-02   -8.650
    59    2  -0.0380  -0.0334   3.8479  0.00851   6.0351E-02 -9.3228E-03  6.1067E-02   -8.781
    60    2  -0.0317  -0.0394   3.8479  0.00887   5.9508E-02 -9.3278E-03  6.0235E-02   -8.909
    61    2  -0.0245  -0.0445   3.8479  0.00883   5.8480E-02 -9.3011E-03  5.9215E-02   -9.037
    62    2  -0.0166  -0.0481   3.8479  0.00867   5.7295E-02 -9.2434E-03  5.8036E-02   -9.165
    63    2  -0.0082  -0.0503   3.8479  0.00878   5.5946E-02 -9.1554E-03  5.6691E-02   -9.294
    64    2   0.0005  -0.0507   3.8479  0.00867   5.4429E-02 -9.0371E-03  5.5174E-02   -9.427
    65    2   0.0091  -0.0498   3.8479  0.00878   5.2740E-02 -8.8889E-03  5.3484E-02   -9.567
    66    2   0.0176  -0.0476   3.8479  0.00867   5.0875E-02 -8.7103E-03  5.1615E-02   -9.715
    67    2   0.0253  -0.0440   3.8479  0.00841   4.8870E-02 -8.5054E-03  4.9605E-02   -9.873
    68    2   0.0322  -0.0390   3.8479  0.00887   4.6651E-02 -8.2663E-03  4.7378E-02  -10.048
    69    2   0.0385  -0.0329   3.8479  0.00851   4.4206E-02 -7.9907E-03  4.4922E-02  -10.246
    70    2   0.0435  -0.0260   3.8479  0.00883   4.1517E-02 -7.6752E-03  4.2220E-02  -10.474
    71    2   0.0474  -0.0180   3.8479  0.00884   3.8439E-02 -7.2990E-03  3.9126E-02  -10.752
    72    2   0.0498  -0.0096   3.8479  0.00878   3.4750E-02 -6.8236E-03  3.5414E-02  -11.109
    73    3   0.0510   0.0000   3.8597  0.02369  -2.5209E-02  5.3657E-04  2.5215E-02  178.781
    74    3   0.0510   0.0000   3.8834  0.02369  -8.7008E-03 -2.0114E-03  8.9303E-03 -166.983
    75    3   0.0510   0.0000   3.9071  0.02369   8.2979E-03 -4.5954E-03  9.4854E-03  -28.978
    76    3   0.0510   0.0000   3.9308  0.02369   2.4818E-02 -7.0780E-03  2.5807E-02  -15.918
    77    4   0.0505  -0.0053   3.8597  0.02369   2.4806E-02 -5.4461E-03  2.5397E-02  -12.383
    78    4   0.0505  -0.0053   3.8834  0.02369   8.2921E-03 -3.1269E-03  8.8620E-03  -20.661
    79    4   0.0505  -0.0053   3.9071  0.02369  -8.7008E-03 -7.3488E-04  8.7318E-03 -175.172
    80    4   0.0505  -0.0053   3.9308  0.02369  -2.5203E-02  1.5544E-03  2.5251E-02  176.471



                                        - - - POWER BUDGET - - -

                                           INPUT POWER   = 1.7566E-02 WATTS
                                           RADIATED POWER= 1.7566E-02 WATTS
                                           STRUCTURE LOSS= 0.0000E+00 WATTS
                                           NETWORK LOSS  = 0.0000E+00 WATTS
                                           EFFICIENCY    = 100.00 PERCENT



                                                - - - RADIATION PATTERNS - - -

  - - ANGLES - -           - POWER GAINS -       - - - POLARIZATION - - -    - - - E(THETA) - - -    - - - E(PHI) - - -
  THETA     PHI        VERT.   HOR.    TOTAL      AXIAL     TILT   SENSE     MAGNITUDE    PHASE      MAGNITUDE    PHASE 
 DEGREES  DEGREES       DB      DB      DB        RATIO     DEG.              VOLTS/M    DEGREES      VOLTS/M    DEGREES
    0.00     0.00     -23.24   -2.82   -2.78    0.04032    85.07  RIGHT     7.06857E-02    36.12    7.42114E-01    10.87
    5.00     0.00     -22.39   -1.95   -1.91    0.03816    85.03  RIGHT     7.79405E-02    24.96    8.20286E-01     1.10
   10.00     0.00     -21.56   -0.01    0.02    0.02780    85.49  RIGHT     8.57997E-02     6.72    1.02500E+00   -12.81
   15.00     0.00     -21.58    1.52    1.54    0.01096    86.05  RIGHT     8.55583E-02   -18.30    1.22300E+00   -27.35
   20.00     0.00     -22.94    0.69    0.71    0.02004    86.41  LEFT      7.31956E-02   -61.75    1.11071E+00   -43.98
   25.00     0.00     -21.51   -7.02   -6.87    0.10437    81.08  LEFT      8.62101E-02  -126.10    4.57391E-01   -91.54
   30.00     0.00     -19.83    0.03    0.08    0.05893    85.26  RIGHT     1.04715E-01  -172.03    1.03002E+00   152.27
   35.00     0.00     -23.32    2.74    2.75    0.00863    87.19  LEFT      6.99931E-02   118.24    1.40674E+00   128.26
   40.00     0.00     -19.39   -8.23   -7.91    0.03499    74.64  RIGHT     1.10147E-01    28.25    3.97674E-01    20.45
   45.00     0.00     -22.20    4.22    4.23    0.01177    87.35  RIGHT     7.96196E-02   -37.27    1.66848E+00   -51.58
   50.00     0.00     -19.16   -9.11   -8.70    0.08859    73.20  LEFT      1.13084E-01  -152.02    3.59479E-01  -134.13
   55.00     0.00     -22.63    5.12    5.13    0.00033    87.65  RIGHT     7.58136E-02   123.35    1.85024E+00   122.89
   60.00     0.00     -18.92   -3.58   -3.46    0.11535    82.80  RIGHT     1.16152E-01    10.97    6.79297E-01   -32.28
   65.00     0.00     -21.43    4.10    4.11    0.03631    87.80  LEFT      8.70534E-02  -108.12    1.64484E+00   -64.71
   70.00     0.00     -20.41    5.15    5.16    0.02117    87.24  RIGHT     9.78632E-02   147.38    1.85639E+00   123.64
   75.00     0.00     -20.97  -13.30  -12.61    0.24151    71.34  LEFT      9.18335E-02    23.51    2.21918E-01    63.74
   80.00     0.00     -19.26    6.11    6.12    0.02411    87.24  LEFT      1.11720E-01   -89.34    2.07429E+00   -62.68
   85.00     0.00     -18.44    5.89    5.91    0.00293    86.53  LEFT      1.22835E-01   116.89    2.02174E+00   119.66
   90.00     0.00    -999.99 -190.46 -190.43    0.02951    85.90  LEFT      2.38835E-11   -84.59    3.07971E-10   -62.11
    0.00    10.00     -14.46   -3.08   -2.78    0.04032    75.07  RIGHT     1.94114E-01    19.67    7.19757E-01    10.45
    5.00    10.00     -13.57   -2.19   -1.89    0.05821    75.23  RIGHT     2.15230E-01    13.87    7.97256E-01     0.54
   10.00    10.00     -12.13   -0.24    0.04    0.06591    76.20  RIGHT     2.53929E-01     2.59    9.98684E-01   -13.36
   15.00    10.00     -11.45    1.31    1.53    0.06279    77.51  RIGHT     2.74727E-01   -11.23    1.19303E+00   -27.85
   20.00    10.00     -13.33    0.46    0.64    0.03935    78.66  RIGHT     2.21214E-01   -32.86    1.08263E+00   -44.41
   25.00    10.00     -17.73   -7.35   -6.97    0.03717    73.28  LEFT      1.33326E-01   -99.93    4.40460E-01   -92.24
   30.00    10.00     -13.03   -0.11    0.10    0.13529    79.74  RIGHT     2.28851E-01  -170.56    1.01322E+00   151.26
   35.00    10.00     -14.06    2.58    2.67    0.05530    82.23  RIGHT     2.03412E-01   150.02    1.38124E+00   127.53
   40.00    10.00     -16.35   -8.41   -7.77    0.14081    69.39  RIGHT     1.56187E-01    42.27    3.89563E-01    18.70
   45.00    10.00     -14.07    4.10    4.17    0.06898    84.16  RIGHT     2.03018E-01   -17.99    1.64627E+00   -52.41
   50.00    10.00     -16.95   -9.32   -8.63    0.01247    67.47  RIGHT     1.45732E-01  -133.63    3.51105E-01  -135.65
   55.00    10.00     -16.09    5.02    5.05    0.04151    85.56  RIGHT     1.61047E-01   150.40    1.82949E+00   122.08
   60.00    10.00     -16.30   -3.64   -3.41    0.19331    82.60  RIGHT     1.57179E-01    24.14    6.75136E-01   -33.40
   65.00    10.00     -18.80    4.00    4.03    0.01634    85.96  LEFT      1.17893E-01   -78.57    1.62720E+00   -65.47
   70.00    10.00     -17.88    5.08    5.10    0.04619    86.90  RIGHT     1.31010E-01   163.47    1.84171E+00   122.83
   75.00    10.00     -19.29  -13.47  -12.46    0.15651    63.98  LEFT      1.11329E-01    40.46    2.17777E-01    62.60
   80.00    10.00     -18.14    6.04    6.06    0.02072    86.67  LEFT      1.27077E-01   -83.11    2.05702E+00   -63.44
   85.00    10.00     -18.83    5.82    5.84    0.00182    86.65  RIGHT     1.17436E-01   120.67    2.00649E+00   118.89
   90.00    10.00    -999.99 -190.52 -190.49    0.03156    85.64  LEFT      2.52198E-11   -85.49    3.05541E-10   -62.87
    0.00    20.00     -10.25   -3.63   -2.78    0.04032    65.07  RIGHT     3.15173E-01    16.03    6.75571E-01    10.00
    5.00    20.00      -9.39   -2.72   -1.87    0.07748    65.42  RIGHT     3.48014E-01    11.35    7.50553E-01    -0.29
   10.00    20.00      -7.86   -0.73    0.04    0.10294    66.84  RIGHT     4.15006E-01     1.65    9.44061E-01   -14.40
   15.00    20.00      -7.04    0.85    1.50    0.11434    68.83  RIGHT     4.56499E-01   -10.03    1.13150E+00   -29.01
   20.00    20.00      -8.80    0.02    0.55    0.10011    70.78  RIGHT     3.72823E-01   -27.63    1.02831E+00   -45.65
   25.00    20.00     -14.69   -7.88   -7.06    0.03232    65.50  RIGHT     1.89150E-01   -88.99    4.14050E-01   -93.89
   30.00    20.00      -9.41   -0.43    0.09    0.21371    74.08  RIGHT     3.47529E-01  -170.39    9.77039E-01   149.27
   35.00    20.00      -9.52    2.26    2.54    0.12264    77.24  RIGHT     3.42781E-01   155.83    1.33191E+00   125.79
   40.00    20.00     -14.02   -8.72   -7.60    0.24314    63.90  RIGHT     2.04231E-01    49.07    3.76006E-01    15.88
   45.00    20.00      -9.95    3.87    4.04    0.12914    81.04  RIGHT     3.26317E-01   -13.77    1.60160E+00   -54.26
   50.00    20.00     -14.88   -9.63   -8.49    0.10920    61.81  RIGHT     1.85021E-01  -123.39    3.38827E-01  -138.26
   55.00    20.00     -12.18    4.82    4.91    0.08473    83.55  RIGHT     2.52587E-01   157.67    1.78853E+00   120.26
   60.00    20.00     -14.18   -3.78   -3.40    0.27276    82.58  RIGHT     2.00664E-01    31.00    6.64317E-01   -35.51
   65.00    20.00     -15.97    3.83    3.87    0.00519    84.16  RIGHT     1.63160E-01   -64.30    1.59446E+00   -67.24
   70.00    20.00     -15.71    4.93    4.97    0.07187    86.63  RIGHT     1.68220E-01   171.96    1.81106E+00   121.03
   75.00    20.00     -17.55  -13.70  -12.20    0.07574    57.46  LEFT      1.36026E-01    50.91    2.11989E-01    60.45
   80.00    20.00     -17.13    5.90    5.92    0.01669    86.08  LEFT      1.42779E-01   -78.92    2.02352E+00   -65.17
   85.00    20.00     -19.19    5.69    5.70    0.00682    86.76  RIGHT     1.12655E-01   124.04    1.97578E+00   117.15
   90.00    20.00    -999.99 -190.66 -190.63    0.03307    85.33  LEFT      2.65097E-11   -86.79    3.00778E-10   -64.59
    0.00    30.00      -7.61   -4.51   -2.78    0.04032    55.07  RIGHT     4.27225E-01    14.37    6.10909E-01     9.46
    5.00    30.00      -6.77   -3.55   -1.86    0.09545    55.57  RIGHT     4.70785E-01    10.15    6.81749E-01    -1.52
   10.00    30.00      -5.20   -1.50    0.04    0.13814    57.33  RIGHT     5.63923E-01     1.15    8.63198E-01   -16.07
   15.00    30.00      -4.31    0.12    1.46    0.16522    59.90  RIGHT     6.24682E-01    -9.63    1.04099E+00   -31.00
   20.00    30.00      -6.01   -0.67    0.45    0.16283    62.62  RIGHT     5.13955E-01   -25.58    9.50197E-01   -47.86
   25.00    30.00     -12.52   -8.64   -7.15    0.10456    57.67  RIGHT     2.42903E-01   -83.58    3.79492E-01   -96.74
   30.00    30.00      -7.02   -0.91    0.04    0.29624    68.17  RIGHT     4.57115E-01  -170.58    9.24002E-01   146.16
   35.00    30.00      -6.73    1.80    2.37    0.19612    72.25  RIGHT     4.72917E-01   157.99    1.26196E+00   122.91
   40.00    30.00     -12.28   -9.14   -7.42    0.34226    58.02  RIGHT     2.49475E-01    52.64    3.58237E-01    11.85
   45.00    30.00      -7.33    3.51    3.86    0.19451    78.08  RIGHT     4.41088E-01   -12.22    1.53793E+00   -57.23
   50.00    30.00     -13.22  -10.02   -8.32    0.20146    56.22  RIGHT     2.24123E-01  -117.62    3.23667E-01  -142.05
   55.00    30.00      -9.62    4.54    4.70    0.13138    81.73  RIGHT     3.38912E-01   160.58    1.73070E+00   117.36
   60.00    30.00     -12.54   -3.99   -3.43    0.35350    83.01  RIGHT     2.42237E-01    34.71    6.48031E-01   -38.65
   65.00    30.00     -13.79    3.58    3.66    0.02944    82.47  RIGHT     2.09851E-01   -57.26    1.54926E+00   -70.03
   70.00    30.00     -14.01    4.72    4.78    0.09819    86.49  RIGHT     2.04574E-01   176.59    1.76720E+00   118.23
   75.00    30.00     -16.06  -13.99  -11.89    0.00079    51.77  LEFT      1.61463E-01    57.15    2.04998E-01    57.24
   80.00    30.00     -16.27    5.69    5.72    0.01157    85.49  LEFT      1.57736E-01   -76.29    1.97669E+00   -67.90
   85.00    30.00     -19.52    5.50    5.51    0.01201    86.86  RIGHT     1.08428E-01   126.82    1.93235E+00   114.43
   90.00    30.00    -999.99 -190.86 -190.82    0.03371    84.97  LEFT      2.77161E-11   -88.43    2.94098E-10   -67.30
    0.00    40.00      -5.80   -5.78   -2.78    0.04032    45.07  RIGHT     5.26506E-01    13.38    5.27752E-01     8.77
    5.00    40.00      -4.96   -4.76   -1.85    0.11157    45.68  RIGHT     5.79633E-01     9.38    5.93209E-01    -3.35
   10.00    40.00      -3.37   -2.62    0.03    0.17058    47.64  RIGHT     6.96134E-01     0.76    7.59330E-01   -18.67
   15.00    40.00      -2.45   -0.90    1.41    0.21459    50.59  RIGHT     7.74105E-01    -9.50    9.25675E-01   -34.14
   20.00    40.00      -4.11   -1.61    0.33    0.22765    54.04  RIGHT     6.39391E-01   -24.57    8.52339E-01   -51.37
   25.00    40.00     -10.96   -9.62   -7.23    0.17994    49.69  RIGHT     2.90521E-01   -80.54    3.38864E-01  -101.20
   30.00    40.00      -5.35   -1.55   -0.04    0.38488    61.83  RIGHT     5.54278E-01  -170.95    8.58148E-01   141.70
   35.00    40.00      -4.83    1.19    2.16    0.27878    67.23  RIGHT     5.88764E-01   158.95    1.17656E+00   118.68
   40.00    40.00     -11.00   -9.65   -7.26    0.43821    51.58  RIGHT     2.89351E-01    54.54    3.38013E-01     6.45
   45.00    40.00      -5.53    3.07    3.63    0.26734    75.43  RIGHT     5.43232E-01   -11.65    1.46065E+00   -61.44
   50.00    40.00     -11.94  -10.48   -8.14    0.28974    50.69  RIGHT     2.59471E-01  -114.32    3.07050E-01  -147.15
   55.00    40.00      -7.84    4.18    4.45    0.18246    80.26  RIGHT     4.15990E-01   161.85    1.66118E+00   113.32
   60.00    40.00     -11.30   -4.27   -3.48    0.43393    84.29  RIGHT     2.79409E-01    36.67    6.28050E-01   -42.84
   65.00    40.00     -12.17    3.27    3.39    0.05734    80.97  RIGHT     2.52764E-01   -53.56    1.49567E+00   -73.91
   70.00    40.00     -12.71    4.46    4.54    0.12478    86.56  RIGHT     2.37447E-01   179.10    1.71435E+00   114.40
   75.00    40.00     -14.88  -14.32  -11.58    0.06855    46.88  RIGHT     1.85003E-01    60.81    1.97418E-01    52.95
   80.00    40.00     -15.56    5.44    5.48    0.00495    84.92  LEFT      1.71086E-01   -74.83    1.92091E+00   -71.63
   85.00    40.00     -19.83    5.26    5.27    0.01726    86.97  RIGHT     1.04636E-01   128.84    1.88035E+00   110.72
   90.00    40.00    -999.99 -191.09 -191.05    0.03307    84.57  LEFT      2.88016E-11   -90.36    2.86132E-10   -71.00
    0.00    50.00      -4.52   -7.58   -2.78    0.04032    35.07  RIGHT     6.09897E-01    12.69    4.28668E-01     7.78
    5.00    50.00      -3.69   -6.45   -1.84    0.12535    35.73  RIGHT     6.71196E-01     8.80    4.88177E-01    -6.24
   10.00    50.00      -2.08   -4.14    0.02    0.19916    37.70  RIGHT     8.07612E-01     0.42    6.37157E-01   -22.78
   15.00    50.00      -1.14   -2.25    1.35    0.26093    40.80  RIGHT     9.00206E-01    -9.53    7.91832E-01   -39.04
   20.00    50.00      -2.78   -2.83    0.20    0.29381    44.81  RIGHT     7.45073E-01   -24.03    7.40874E-01   -56.78
   25.00    50.00      -9.86  -10.82   -7.30    0.25863    41.40  RIGHT     3.29694E-01   -78.74    2.95296E-01  -107.93
   30.00    50.00      -4.16   -2.32   -0.13    0.48127    54.73  RIGHT     6.36050E-01  -171.45    7.85327E-01   135.52
   35.00    50.00      -3.49    0.47    1.94    0.37414    62.23  RIGHT     6.86501E-01   159.33    1.08319E+00   112.79
   40.00    50.00     -10.06  -10.19   -7.12    0.53060    44.28  RIGHT     3.22130E-01    55.42    3.17623E-01    -0.49
   45.00    50.00      -4.25    2.55    3.38    0.34943    73.38  RIGHT     6.29446E-01   -11.59    1.37725E+00   -67.05
   50.00    50.00     -11.01  -10.95   -7.97    0.37524    45.25  RIGHT     2.88901E-01  -112.52    2.90777E-01  -153.65
   55.00    50.00      -6.58    3.79    4.17    0.23806    79.34  RIGHT     4.81037E-01   162.29    1.58692E+00   108.05
   60.00    50.00     -10.38   -4.57   -3.56    0.50926    87.00  RIGHT     3.10474E-01    37.53    6.06668E-01   -48.12
   65.00    50.00     -11.00    2.94    3.11    0.08925    79.79  RIGHT     2.89195E-01   -51.63    1.43903E+00   -78.91
   70.00    50.00     -11.76    4.17    4.28    0.15059    86.92  RIGHT     2.65137E-01  -179.69    1.65803E+00   109.52
   75.00    50.00     -13.99  -14.65  -11.30    0.13351    42.75  RIGHT     2.04982E-01    62.81    1.89999E-01    47.56
   80.00    50.00     -15.02    5.17    5.22    0.00347    84.42  RIGHT     1.82152E-01   -74.31    1.86189E+00   -76.36
   85.00    50.00     -20.13    5.00    5.01    0.02242    87.10  RIGHT     1.01155E-01   129.95    1.82519E+00   106.02
   90.00    50.00    -999.99 -191.35 -191.30    0.03069    84.14  LEFT      2.97302E-11   -92.53    2.77699E-10   -75.69
    0.00    60.00      -3.64  -10.21   -2.78    0.04032    25.07  RIGHT     6.74826E-01    12.15    3.16766E-01     6.14
    5.00    60.00      -2.81   -8.83   -1.84    0.13636    25.73  RIGHT     7.42673E-01     8.31    3.71155E-01   -11.24
   10.00    60.00      -1.19   -6.18    0.01    0.22266    27.52  RIGHT     8.94964E-01     0.09    5.03787E-01   -29.66
   15.00    60.00      -0.23   -3.98    1.30    0.30185    30.40  RIGHT     9.99140E-01    -9.64    6.49192E-01   -46.90
   20.00    60.00      -1.87   -4.30    0.09    0.35889    34.63  RIGHT     8.27686E-01   -23.76    6.25259E-01   -65.14
   25.00    60.00      -9.13  -12.14   -7.37    0.34019    32.53  RIGHT     3.58845E-01   -77.66    2.53530E-01  -117.98
   30.00    60.00      -3.32   -3.16   -0.23    0.58581    46.13  RIGHT     6.99918E-01  -172.05    7.13572E-01   127.20
   35.00    60.00      -2.57   -0.30    1.72    0.48637    57.28  RIGHT     7.63017E-01   159.38    9.91955E-01   104.90
   40.00    60.00      -9.43  -10.69   -7.00    0.61803    35.61  RIGHT     3.46552E-01    55.63    2.99799E-01    -9.03
   45.00    60.00      -3.36    2.03    3.14    0.44110    72.47  RIGHT     6.96994E-01   -11.84    1.29719E+00   -74.17
   50.00    60.00     -10.37  -11.38   -7.84    0.45984    39.89  RIGHT     3.10960E-01  -111.70    2.76917E-01  -161.54
   55.00    60.00      -5.71    3.39    3.89    0.29631    79.31  RIGHT     5.31860E-01   162.25    1.51638E+00   101.54
   60.00    60.00      -9.75   -4.86   -3.64    0.56899   -88.24  RIGHT     3.34175E-01    37.66    5.86546E-01   -54.44
   65.00    60.00     -10.19    2.61    2.83    0.12436    79.11  RIGHT     3.17401E-01   -50.76    1.38569E+00   -85.01
   70.00    60.00     -11.08    3.88    4.02    0.17366    87.64  RIGHT     2.86430E-01  -179.34    1.60472E+00   103.63
   75.00    60.00     -13.37  -14.95  -11.08    0.19578    39.39  RIGHT     2.20278E-01    63.69    1.83576E-01    41.14
   80.00    60.00     -14.63    4.91    4.96    0.01367    84.03  RIGHT     1.90421E-01   -74.53    1.80628E+00   -82.06
   85.00    60.00     -20.41    4.75    4.76    0.02724    87.25  RIGHT     9.78921E-02   130.01    1.77312E+00   100.38
   90.00    60.00    -999.99 -191.61 -191.55    0.02616    83.73  LEFT      3.04691E-11   -94.88    2.69750E-10   -81.32
    0.00    70.00      -3.09  -14.39   -2.78    0.04032    15.07  RIGHT     7.19300E-01    11.69    1.95799E-01     2.55
    5.00    70.00      -2.25  -12.28   -1.84    0.14421    15.68  RIGHT     7.91878E-01     7.87    2.49683E-01   -21.64
   10.00    70.00      -0.62   -8.82   -0.01    0.23982    17.12  RIGHT     9.55526E-01    -0.24    3.71974E-01   -42.37
   15.00    70.00       0.35   -6.00    1.25    0.33410    19.38  RIGHT     1.06788E+00    -9.81    5.14507E-01   -60.03
   20.00    70.00      -1.29   -5.89    0.00    0.41765    23.17  RIGHT     8.84661E-01   -23.65    5.20742E-01   -78.09
   25.00    70.00      -8.70  -13.35   -7.42    0.42273    22.68  RIGHT     3.76882E-01   -77.06    2.20612E-01  -132.41
   30.00    70.00      -2.79   -3.92   -0.31    0.69365    34.17  RIGHT     7.43909E-01  -172.73    6.53220E-01   116.44
   35.00    70.00      -1.99   -0.99    1.55    0.62065    52.49  RIGHT     8.15894E-01   159.22    9.15580E-01    94.79
   40.00    70.00      -9.06  -11.06   -6.93    0.69665    24.63  RIGHT     3.61731E-01    55.35    2.87383E-01   -19.01
   45.00    70.00      -2.80    1.58    2.93    0.53788    73.80  RIGHT     7.43729E-01   -12.28    1.23127E+00   -82.79
   50.00    70.00     -10.00  -11.68   -7.75    0.54620    34.64  RIGHT     3.24669E-01  -111.60    2.67516E-01  -170.61
   55.00    70.00      -5.16    3.05    3.66    0.35176    80.54  RIGHT     5.66773E-01   161.88    1.45874E+00    93.86
   60.00    70.00      -9.35   -5.10   -3.72    0.59708   -81.55  RIGHT     3.49606E-01    37.23    5.70429E-01   -61.68
   65.00    70.00      -9.69    2.33    2.60    0.16011    79.09  RIGHT     3.36187E-01   -50.61    1.34237E+00   -92.09
   70.00    70.00     -10.67    3.64    3.80    0.19115    88.71  RIGHT     3.00462E-01  -179.62    1.56117E+00    96.84
   75.00    70.00     -12.99  -15.17  -10.93    0.25711    36.83  RIGHT     2.30128E-01    63.73    1.78950E-01    33.89
   80.00    70.00     -14.40    4.69    4.74    0.02511    83.83  RIGHT     1.95532E-01   -75.38    1.76094E+00   -88.61
   85.00    70.00     -20.69    4.54    4.55    0.03138    87.43  RIGHT     9.48261E-02   128.94    1.73058E+00    93.92
   90.00    70.00    -999.99 -191.82 -191.76    0.01936    83.38  LEFT      3.09911E-11   -97.36    2.63265E-10   -87.76
    0.00    80.00      -2.82  -23.04   -2.78    0.04032     5.07  RIGHT     7.41961E-01    11.28    7.22819E-02   -13.38
    5.00    80.00      -1.98  -16.97   -1.84    0.14864     5.59  RIGHT     8.17311E-01     7.45    1.45450E-01   -50.02
   10.00    80.00      -0.33  -11.56   -0.02    0.24957     6.54  RIGHT     9.87451E-01    -0.57    2.71095E-01   -67.54
   15.00    80.00       0.64   -7.78    1.22    0.35405     7.81  RIGHT     1.10433E+00   -10.01    4.18813E-01   -81.62
   20.00    80.00      -1.00   -7.14   -0.06    0.46120    10.22  RIGHT     9.14224E-01   -23.64    4.51168E-01   -97.03
   25.00    80.00      -8.56  -13.98   -7.46    0.50089    11.16  RIGHT     3.83139E-01   -76.80    2.05256E-01  -150.95
   30.00    80.00      -2.53   -4.44   -0.37    0.77841    14.22  RIGHT     7.66653E-01  -173.48    6.15724E-01   103.39
   35.00    80.00      -1.70   -1.46    1.43    0.78355    48.41  RIGHT     8.43452E-01   158.93    8.67759E-01    82.68
   40.00    80.00      -8.93  -11.20   -6.91    0.75676     9.89  RIGHT     3.67134E-01    54.66    2.82662E-01   -29.89
   45.00    80.00      -2.52    1.29    2.80    0.62170    79.26  RIGHT     7.68152E-01   -12.87    1.18996E+00   -92.63
   50.00    80.00      -9.87  -11.79   -7.71    0.63784    29.48  RIGHT     3.29444E-01  -112.07    2.64123E-01   179.64
   55.00    80.00      -4.89    2.84    3.51    0.39414    83.27  RIGHT     5.84613E-01   161.28    1.42246E+00    85.28
   60.00    80.00      -9.19   -5.25   -3.78    0.58329   -74.84  RIGHT     3.56198E-01    36.35    5.60689E-01   -69.59
   65.00    80.00      -9.47    2.15    2.44    0.19181    79.85  RIGHT     3.44791E-01   -50.97    1.31506E+00   -99.92
   70.00    80.00     -10.49    3.49    3.66    0.20001   -89.95  RIGHT     3.06681E-01   179.61    1.53336E+00    89.39
   75.00    80.00     -12.84  -15.28  -10.88    0.31891    35.19  RIGHT     2.34069E-01    63.11    1.76745E-01    26.10
   80.00    80.00     -14.32    4.55    4.60    0.03663    83.84  RIGHT     1.97283E-01   -76.78    1.73191E+00   -95.77
   85.00    80.00     -20.95    4.40    4.41    0.03452    87.62  RIGHT     9.20369E-02   126.66    1.70323E+00    86.87
   90.00    80.00    -999.99 -191.96 -191.89    0.01064    83.14  LEFT      3.12760E-11   -99.94    2.59099E-10   -94.81
    0.00    90.00      -2.82  -23.24   -2.78    0.04032    -4.93  RIGHT     7.42114E-01    10.87    7.06857E-02  -143.88
    5.00    90.00      -1.97  -17.41   -1.85    0.14950    -4.52  RIGHT     8.18195E-01     7.02    1.38332E-01  -110.15
   10.00    90.00      -0.31  -11.97   -0.03    0.25124    -4.12  RIGHT     9.89760E-01    -0.92    2.58635E-01  -105.88
   15.00    90.00       0.66   -8.08    1.21    0.35888    -4.05  RIGHT     1.10736E+00   -10.24    4.04949E-01  -109.96
   20.00    90.00      -0.99   -7.31   -0.08    0.47892    -3.88  RIGHT     9.15446E-01   -23.68    4.42558E-01  -119.87
   25.00    90.00      -8.69  -13.66   -7.49    0.56240    -2.82  RIGHT     3.77351E-01   -76.81    2.12953E-01  -170.23
   30.00    90.00      -2.52   -4.52   -0.40    0.77343   -13.04  RIGHT     7.67439E-01  -174.29    6.09905E-01    89.19
   35.00    90.00      -1.69   -1.55    1.39    0.97646    67.00  RIGHT     8.44803E-01   158.56    8.58895E-01    69.54
   40.00    90.00      -9.04  -11.08   -6.93    0.78059    -8.92  RIGHT     3.62579E-01    53.59    2.86545E-01   -40.79
   45.00    90.00      -2.50    1.22    2.75    0.65170    89.45  RIGHT     7.69467E-01   -13.57    1.18060E+00  -103.08
   50.00    90.00      -9.99  -11.69   -7.74    0.73948    24.36  RIGHT     3.25069E-01  -113.05    2.67283E-01   169.92
   55.00    90.00      -4.89    2.78    3.47    0.41083    87.13  RIGHT     5.84774E-01   160.50    1.41326E+00    76.27
   60.00    90.00      -9.25   -5.28   -3.82    0.53613   -70.32  RIGHT     3.53715E-01    35.08    5.58803E-01   -77.78
   65.00    90.00      -9.52    2.11    2.39    0.21349    81.34  RIGHT     3.42845E-01   -51.76    1.30775E+00  -108.10
   70.00    90.00     -10.54    3.44    3.61    0.19836   -88.59  RIGHT     3.04845E-01   178.40    1.52522E+00    81.62
   75.00    90.00     -12.92  -15.25  -10.92    0.38181    34.69  RIGHT     2.31911E-01    61.91    1.77244E-01    18.22
   80.00    90.00     -14.40    4.50    4.56    0.04663    84.09  RIGHT     1.95630E-01   -78.69    1.72317E+00  -103.22
   85.00    90.00     -21.17    4.36    4.37    0.03647    87.80  RIGHT     8.97177E-02   123.16    1.69479E+00    79.53
   90.00    90.00    -999.99 -192.00 -191.94    0.00090    83.08  LEFT      3.13127E-11  -102.56    2.57816E-10  -102.13
    0.00   100.00      -3.08  -14.46   -2.78    0.04032   -14.93  RIGHT     7.19757E-01    10.45    1.94114E-01  -160.33
    5.00   100.00      -2.22  -12.71   -1.85    0.14678   -14.62  RIGHT     7.94503E-01     6.58    2.37651E-01  -141.86
   10.00   100.00      -0.56   -9.46   -0.03    0.24475   -14.75  RIGHT     9.62381E-01    -1.29    3.45275E-01  -134.70
   15.00   100.00       0.42   -6.58    1.21    0.34775   -15.86  RIGHT     1.07686E+00   -10.49    4.81178E-01  -134.09
   20.00   100.00      -1.25   -6.27   -0.06    0.46489   -18.06  RIGHT     8.88269E-01   -23.75    4.98691E-01  -140.17
   25.00   100.00      -9.11  -12.60   -7.50    0.58729   -19.19  RIGHT     3.59652E-01   -77.04    2.40564E-01   173.85
   30.00   100.00      -2.77   -4.14   -0.39    0.68537   -32.11  RIGHT     7.46240E-01  -175.16    6.37068E-01    75.63
   35.00   100.00      -1.95   -1.23    1.44    0.80703   -56.54  RIGHT     8.19876E-01   158.12    8.90821E-01    56.88
   40.00   100.00      -9.39  -10.74   -7.00    0.75786   -27.64  RIGHT     3.48245E-01    52.15    2.98169E-01   -50.85
   45.00   100.00      -2.75    1.39    2.81    0.60406   -81.27  RIGHT     7.47610E-01   -14.33    1.20465E+00  -113.29
   50.00   100.00     -10.35  -11.40   -7.83    0.85763    19.06  RIGHT     3.11696E-01  -114.53    2.76319E-01   160.91
   55.00   100.00      -5.15    2.90    3.53    0.39562   -88.98  RIGHT     5.67226E-01   159.59    1.43235E+00    67.41
   60.00   100.00      -9.54   -5.19   -3.83    0.47349   -68.47  RIGHT     3.42268E-01    33.42    5.64949E-01   -85.80
   65.00   100.00      -9.85    2.19    2.46    0.22030    83.24  RIGHT     3.30379E-01   -52.93    1.32129E+00  -116.16
   70.00   100.00     -10.83    3.51    3.67    0.18672   -87.47  RIGHT     2.95026E-01   176.78    1.53769E+00    73.95
   75.00   100.00     -13.23  -15.10  -11.06    0.44448    35.76  RIGHT     2.23736E-01    60.13    1.80313E-01    10.69
   80.00   100.00     -14.62    4.56    4.62    0.05356    84.52  RIGHT     1.90694E-01   -81.12    1.73564E+00  -110.59
   85.00   100.00     -21.32    4.42    4.43    0.03727    87.95  RIGHT     8.81646E-02   118.51    1.70615E+00    72.28
   90.00   100.00    -999.99 -191.94 -191.88    0.00862    83.18  RIGHT     3.10996E-11  -105.19    2.59555E-10  -109.38
    0.00   110.00      -3.63  -10.25   -2.78    0.04032   -24.93  RIGHT     6.75571E-01    10.00    3.15173E-01  -163.97
    5.00   110.00      -2.76   -9.13   -1.86    0.14060   -24.71  RIGHT     7.46958E-01     6.10    3.58631E-01  -153.21
   10.00   110.00      -1.08   -6.72   -0.03    0.23061   -25.27  RIGHT     9.06144E-01    -1.67    4.73263E-01  -149.43
   15.00   110.00      -0.11   -4.55    1.23    0.32231   -27.27  RIGHT     1.01376E+00   -10.74    6.07947E-01  -149.29
   20.00   110.00      -1.81   -4.72   -0.01    0.42319   -31.18  RIGHT     8.33506E-01   -23.82    5.96182E-01  -154.48
   25.00   110.00      -9.84  -11.30   -7.50    0.56192   -35.69  RIGHT     3.30562E-01   -77.52    2.79553E-01   162.49
   30.00   110.00      -3.28   -3.45   -0.35    0.57971   -43.87  RIGHT     7.03720E-01  -176.10    6.90093E-01    64.12
   35.00   110.00      -2.50   -0.62    1.55    0.63951   -60.29  RIGHT     7.69419E-01   157.66    9.55641E-01    45.97
   40.00   110.00     -10.00  -10.25   -7.11    0.70265   -42.51  RIGHT     3.24676E-01    50.25    3.15263E-01   -59.50
   45.00   110.00      -3.28    1.76    2.94    0.51421   -77.04  RIGHT     7.03253E-01   -15.16    1.25706E+00  -122.52
   50.00   110.00     -10.98  -10.99   -7.98    0.99456   -40.26  RIGHT     2.89847E-01  -116.60    2.89587E-01   153.09
   55.00   110.00      -5.70    3.16    3.69    0.35467   -86.19  RIGHT     5.32515E-01   158.54    1.47600E+00    59.25
   60.00   110.00     -10.06   -4.99   -3.81    0.40885   -68.72  RIGHT     3.22318E-01    31.31    5.77955E-01   -93.25
   65.00   110.00     -10.46    2.40    2.62    0.21109    85.15  RIGHT     3.07810E-01   -54.53    1.35314E+00  -123.65
   70.00   110.00     -11.36    3.68    3.82    0.16790   -86.79  RIGHT     2.77610E-01   174.70    1.56839E+00    66.77
   75.00   110.00     -13.78  -14.86  -11.28    0.50085    39.06  RIGHT     2.09901E-01    57.69    1.85437E-01     3.89
   80.00   110.00     -14.99    4.72    4.77    0.05653    85.05  RIGHT     1.82767E-01   -84.09    1.76700E+00  -117.50
   85.00   110.00     -21.36    4.56    4.57    0.03720    88.04  RIGHT     8.77355E-02   112.90    1.73516E+00    65.45
   90.00   110.00    -999.99 -191.79 -191.74    0.01674    83.45  RIGHT     3.06454E-11  -107.79    2.63986E-10  -116.19
    0.00   120.00      -4.51   -7.61   -2.78    0.04032   -34.93  RIGHT     6.10909E-01     9.46    4.27225E-01  -165.63
    5.00   120.00      -3.61   -6.67   -1.87    0.13122   -34.76  RIGHT     6.77015E-01     5.54    4.76205E-01  -158.55
   10.00   120.00      -1.92   -4.56   -0.03    0.20980   -35.60  RIGHT     8.22762E-01    -2.10    6.06919E-01  -157.22
   15.00   120.00      -0.95   -2.73    1.26    0.28582   -38.10  RIGHT     9.19983E-01   -10.99    7.49159E-01  -158.33
   20.00   120.00      -2.69   -3.21    0.07    0.36399   -42.77  RIGHT     7.52816E-01   -23.85    7.09245E-01  -163.77
   25.00   120.00     -10.95  -10.07   -7.47    0.49585   -49.81  RIGHT     2.90972E-01   -78.32    3.22084E-01   154.82
   30.00   120.00      -4.09   -2.64   -0.29    0.47949   -52.66  RIGHT     6.41213E-01  -177.15    7.57702E-01    55.09
   35.00   120.00      -3.39    0.12    1.72    0.50092   -64.86  RIGHT     6.94977E-01   157.18    1.04010E+00    37.27
   40.00   120.00     -10.89   -9.73   -7.26    0.63241   -54.09  RIGHT     2.92793E-01    47.72    3.34964E-01   -66.55
   45.00   120.00      -4.13    2.24    3.14    0.41785   -76.43  RIGHT     6.37781E-01   -16.06    1.32827E+00  -130.32
   50.00   120.00     -11.91  -10.54   -8.16    0.84217   -78.52  RIGHT     2.60439E-01  -119.48    3.04995E-01   146.66
   55.00   120.00      -6.57    3.51    3.91    0.30033   -84.84  RIGHT     4.81751E-01   157.33    1.53678E+00    52.16
   60.00   120.00     -10.84   -4.73   -3.78    0.34917   -70.41  RIGHT     2.94681E-01    28.63    5.95615E-01   -99.83
   65.00   120.00     -11.41    2.69    2.85    0.18869    86.68  RIGHT     2.75951E-01   -56.69    1.39811E+00  -130.25
   70.00   120.00     -12.15    3.92    4.03    0.14555   -86.61  RIGHT     2.53313E-01   172.02    1.61229E+00    60.39
   75.00   120.00     -14.60  -14.57  -11.57    0.53558    45.22  RIGHT     1.91059E-01    54.41    1.91856E-01    -1.94
   80.00   120.00     -15.50    4.94    4.98    0.05553    85.59  RIGHT     1.72306E-01   -87.69    1.81222E+00  -123.67
   85.00   120.00     -21.26    4.77    4.78    0.03667    88.06  RIGHT     8.87743E-02   106.65    1.77716E+00    59.35
   90.00   120.00    -999.99 -191.59 -191.53    0.02275    83.81  RIGHT     2.99680E-11  -110.30    2.70402E-10  -122.28
    0.00   130.00      -5.78   -5.80   -2.78    0.04032   -44.93  RIGHT     5.27752E-01     8.77    5.26506E-01  -166.62
    5.00   130.00      -4.86   -4.92   -1.88    0.11897   -44.77  RIGHT     5.86818E-01     4.86    5.82249E-01  -161.57
   10.00   130.00      -3.14   -2.94   -0.03    0.18357   -45.70  RIGHT     7.14781E-01    -2.60    7.31240E-01  -161.79
   15.00   130.00      -2.18   -1.29    1.30    0.24185   -48.31  RIGHT     7.98371E-01   -11.24    8.84908E-01  -163.89
   20.00   130.00      -3.99   -1.94    0.17    0.29654   -53.00  RIGHT     6.48652E-01   -23.83    8.20726E-01  -169.75
   25.00   130.00     -12.54   -9.03   -7.43    0.40894   -61.26  RIGHT     2.42134E-01   -79.62    3.62744E-01   149.73
   30.00   130.00      -5.25   -1.85   -0.22    0.38882   -60.16  RIGHT     5.60690E-01  -178.38    8.28939E-01    48.33
   35.00   130.00      -4.68    0.84    1.92    0.38413   -69.58  RIGHT     5.98832E-01   156.67    1.13073E+00    30.70
   40.00   130.00     -12.13   -9.23   -7.43    0.55548   -63.76  RIGHT     2.53937E-01    44.22    3.54508E-01   -72.05
   45.00   130.00      -5.37    2.74    3.37    0.32830   -77.70  RIGHT     5.53247E-01   -17.07    1.40728E+00  -136.57
   50.00   130.00     -13.19  -10.11   -8.37    0.69464   -83.55  RIGHT     2.24853E-01  -123.61    3.20477E-01   141.64
   55.00   130.00      -7.83    3.89    4.17    0.24254   -84.73  RIGHT     4.16568E-01   155.87    1.60557E+00    46.31
   60.00   130.00     -11.91   -4.44   -3.73    0.29734   -73.09  RIGHT     2.60561E-01    25.11    6.15218E-01  -105.36
   65.00   130.00     -12.77    3.00    3.11    0.15775    87.69  RIGHT     2.36030E-01   -59.74    1.44966E+00  -135.76
   70.00   130.00     -13.25    4.19    4.27    0.12276   -86.89  RIGHT     2.23195E-01   168.45    1.66290E+00    54.98
   75.00   130.00     -15.71  -14.26  -11.91    0.52485    53.45  RIGHT     1.68206E-01    49.88    1.98729E-01    -6.68
   80.00   130.00     -16.15    5.19    5.22    0.05119    86.06  RIGHT     1.59940E-01   -92.07    1.86474E+00  -128.91
   85.00   130.00     -20.99    5.00    5.02    0.03605    88.01  RIGHT     9.15200E-02   100.21    1.82602E+00    54.14
   90.00   130.00    -999.99 -191.35 -191.30    0.02646    84.22  RIGHT     2.90934E-11  -112.68    2.77870E-10  -127.47
    0.00   140.00      -7.58   -4.52   -2.78    0.04032   -54.93  RIGHT     4.28668E-01     7.78    6.09897E-01  -167.31
    5.00   140.00      -6.62   -3.68   -1.89    0.10428   -54.73  RIGHT     4.79148E-01     3.91    6.72094E-01  -163.49
   10.00   140.00      -4.87   -1.76   -0.03    0.15316   -55.57  RIGHT     5.85502E-01    -3.23    8.38320E-01  -164.65
   15.00   140.00      -3.93   -0.19    1.34    0.19334   -57.97  RIGHT     6.52631E-01   -11.50    1.00403E+00  -167.42
   20.00   140.00      -5.84   -0.95    0.27    0.22654   -62.20  RIGHT     5.24181E-01   -23.70    9.20088E-01  -173.63
   25.00   140.00     -14.85   -8.23   -7.37    0.31479   -70.81  RIGHT     1.85677E-01   -81.94    3.97991E-01   146.44
   30.00   140.00      -6.88   -1.19   -0.15    0.30722   -67.02  RIGHT     4.64711E-01  -179.93    8.95043E-01    43.42
   35.00   140.00      -6.53    1.48    2.11    0.28353   -74.31  RIGHT     4.83931E-01   156.11    1.21637E+00    25.94
   40.00   140.00     -13.78   -8.82   -7.62    0.47486   -72.35  RIGHT     2.10001E-01    39.06    3.71574E-01   -76.17
   45.00   140.00      -7.12    3.20    3.59    0.24822   -79.94  RIGHT     4.52302E-01   -18.31    1.48384E+00  -141.34
   50.00   140.00     -14.87   -9.74   -8.58    0.55313   -88.25  RIGHT     1.85148E-01  -129.88    3.34264E-01   137.92
   55.00   140.00      -9.62    4.25    4.42    0.18651   -85.47  RIGHT     3.39100E-01   153.92    1.67340E+00    41.74
   60.00   140.00     -13.31   -4.18   -3.68    0.25393   -76.44  RIGHT     2.21630E-01    20.22    6.34035E-01  -109.80
   65.00   140.00     -14.66    3.30    3.37    0.12241    88.18  RIGHT     1.89812E-01   -64.43    1.50113E+00  -140.13
   70.00   140.00     -14.71    4.45    4.50    0.10137   -87.53  RIGHT     1.88757E-01   163.43    1.71347E+00    50.64
   75.00   140.00     -17.13  -13.98  -12.26    0.45627    61.02  RIGHT     1.42816E-01    43.37    2.05266E-01   -10.30
   80.00   140.00     -16.91    5.43    5.46    0.04442    86.44  RIGHT     1.46474E-01   -97.42    1.91768E+00  -133.14
   85.00   140.00     -20.58    5.24    5.25    0.03560    87.89  RIGHT     9.60338E-02    94.05    1.87526E+00    49.93
   90.00   140.00    -999.99 -191.12 -191.07    0.02813    84.62  RIGHT     2.80534E-11  -114.89    2.85409E-10  -131.67
    0.00   150.00     -10.21   -3.64   -2.78    0.04032   -64.93  RIGHT     3.16766E-01     6.14    6.74826E-01  -167.85
    5.00   150.00      -9.16   -2.81   -1.91    0.08759   -64.65  RIGHT     3.57371E-01     2.38    7.42404E-01  -164.76
   10.00   150.00      -7.38   -0.92   -0.04    0.11969   -65.25  RIGHT     4.38900E-01    -4.20    9.23080E-01  -166.49
   15.00   150.00      -6.47    0.60    1.38    0.14237   -67.20  RIGHT     4.87198E-01   -11.81    1.09953E+00  -169.67
   20.00   150.00      -8.56   -0.22    0.37    0.15674   -70.71  RIGHT     3.83193E-01   -23.34    1.00060E+00  -176.08
   25.00   150.00     -18.37   -7.65   -7.29    0.21976   -79.18  RIGHT     1.23802E-01   -86.94    4.25496E-01   144.46
   30.00   150.00      -9.19   -0.67   -0.10    0.23298   -73.54  RIGHT     3.56408E-01   177.78    9.49575E-01    39.98
   35.00   150.00      -9.25    1.98    2.29    0.19467   -79.03  RIGHT     3.53793E-01   155.37    1.28864E+00    22.65
   40.00   150.00     -15.94   -8.53   -7.80    0.39160   -80.30  RIGHT     1.63873E-01    30.69    3.84390E-01   -79.06
   45.00   150.00      -9.64    3.58    3.78    0.17664   -82.69  RIGHT     3.38152E-01   -20.10    1.54960E+00  -144.78
   50.00   150.00     -17.02   -9.47   -8.77    0.41654    87.13  RIGHT     1.44710E-01  -140.26    3.44994E-01   135.41
   55.00   150.00     -12.20    4.55    4.64    0.13399   -86.76  RIGHT     2.52007E-01   150.85    1.73253E+00    38.37
   60.00   150.00     -15.11   -3.97   -3.65    0.21823   -80.25  RIGHT     1.80293E-01    12.92    6.49664E-01  -113.14
   65.00   150.00     -17.30    3.56    3.60    0.08537    88.27  RIGHT     1.40088E-01   -72.75    1.54665E+00  -143.37
   70.00   150.00     -16.58    4.67    4.71    0.08209   -88.42  RIGHT     1.52203E-01   155.78    1.75793E+00    47.37
   75.00   150.00     -18.85  -13.75  -12.58    0.34300    65.98  RIGHT     1.17194E-01    33.45    2.10811E-01   -12.82
   80.00   150.00     -17.76    5.64    5.66    0.03606    86.73  RIGHT     1.32887E-01  -103.98    1.96477E+00  -136.32
   85.00   150.00     -20.04    5.44    5.45    0.03543    87.72  RIGHT     1.02182E-01    88.54    1.91898E+00    46.75
   90.00   150.00    -999.99 -190.91 -190.88    0.02817    84.99  RIGHT     2.68843E-11  -116.87    2.92121E-10  -134.84
    0.00   160.00     -14.39   -3.09   -2.78    0.04032   -74.93  RIGHT     1.95799E-01     2.55    7.19300E-01  -168.31
    5.00   160.00     -13.16   -2.26   -1.92    0.06940   -74.53  RIGHT     2.25509E-01    -0.81    7.90745E-01  -165.63
   10.00   160.00     -11.30   -0.38   -0.04    0.08412   -74.78  RIGHT     2.79573E-01    -6.13    9.82039E-01  -167.64
   15.00   160.00     -10.48    1.11    1.41    0.09016   -76.11  RIGHT     3.07111E-01   -12.33    1.16679E+00  -171.02
   20.00   160.00     -12.99    0.26    0.46    0.08809   -78.76  RIGHT     2.29998E-01   -22.39    1.05786E+00  -177.48
   25.00   160.00     -24.51   -7.28   -7.20    0.12630   -86.87  RIGHT     6.10727E-02  -103.48    4.43772E-01   143.51
   30.00   160.00     -12.63   -0.33   -0.08    0.16407   -79.86  RIGHT     2.39658E-01   173.52    9.88053E-01    37.74
   35.00   160.00     -13.68    2.33    2.44    0.11387   -83.72  RIGHT     2.12433E-01   153.89    1.34166E+00    20.59
   40.00   160.00     -18.58   -8.37   -7.97    0.30625   -87.82  RIGHT     1.20881E-01    15.56    3.91729E-01   -80.85
   45.00   160.00     -13.59    3.85    3.93    0.11151   -85.72  RIGHT     2.14635E-01   -23.63    1.59832E+00  -147.01
   50.00   160.00     -19.39   -9.30   -8.89    0.28442    82.51  RIGHT     1.10142E-01  -158.67    3.51728E-01   134.01
   55.00   160.00     -16.20    4.77    4.80    0.08487   -88.39  RIGHT     1.58902E-01   144.37    1.77702E+00    36.15
   60.00   160.00     -17.28   -3.83   -3.64    0.18863   -84.38  RIGHT     1.40439E-01     1.07    6.60221E-01  -115.42
   65.00   160.00     -20.86    3.76    3.77    0.04795    88.05  RIGHT     9.29406E-02   -90.74    1.58159E+00  -145.51
   70.00   160.00     -18.84    4.84    4.86    0.06483   -89.48  RIGHT     1.17247E-01   143.05    1.79140E+00    45.16
   75.00   160.00     -20.65  -13.58  -12.80    0.20551    68.48  RIGHT     9.52381E-02    17.88    2.14882E-01   -14.28
   80.00   160.00     -18.62    5.80    5.82    0.02672    86.92  RIGHT     1.20325E-01  -112.01    2.00096E+00  -138.47
   85.00   160.00     -19.42    5.59    5.60    0.03554    87.51  RIGHT     1.09672E-01    83.92    1.95235E+00    44.59
   90.00   160.00    -999.99 -190.76 -190.73    0.02703    85.32  RIGHT     2.56238E-11  -118.58    2.97275E-10  -136.98
    0.00   170.00     -23.04   -2.82   -2.78    0.04032   -84.93  RIGHT     7.22819E-02   -13.38    7.41961E-01  -168.72
    5.00   170.00     -21.16   -2.00   -1.94    0.05018   -84.40  RIGHT     8.98342E-02   -13.59    8.15485E-01  -166.21
   10.00   170.00     -19.14   -0.11   -0.06    0.04721   -84.21  RIGHT     1.13317E-01   -13.51    1.01293E+00  -168.27
   15.00   170.00     -18.79    1.38    1.42    0.03738   -84.82  RIGHT     1.17912E-01   -14.27    1.20287E+00  -171.66
   20.00   170.00     -23.38    0.52    0.53    0.02060   -86.54  RIGHT     6.95629E-02   -16.93    1.08915E+00  -178.04
   25.00   170.00     -28.93   -7.12   -7.09    0.03515    85.81  RIGHT     3.67185E-02   169.25    4.51991E-01   143.47
   30.00   170.00     -18.58   -0.16   -0.10    0.09834   -86.07  RIGHT     1.20851E-01   161.07    1.00762E+00    36.54
   35.00   170.00     -24.00    2.52    2.53    0.03798   -88.39  RIGHT     6.47662E-02   146.01    1.37169E+00    19.62
   40.00   170.00     -20.87   -8.34   -8.10    0.21932    84.97  RIGHT     9.28270E-02   -12.38    3.92870E-01   -81.62
   45.00   170.00     -21.34    4.00    4.01    0.05050   -88.88  RIGHT     8.79932E-02   -37.12    1.62586E+00  -148.15
   50.00   170.00     -20.73   -9.25   -8.95    0.15674    77.83  RIGHT     9.43045E-02   171.60    3.53938E-01   133.66
   55.00   170.00     -23.43    4.89    4.90    0.03818    89.80  RIGHT     6.91123E-02   119.81    1.80280E+00    35.01
   60.00   170.00     -19.45   -3.78   -3.66    0.16297   -88.71  RIGHT     1.09313E-01   -18.98    6.64421E-01  -116.66
   65.00   170.00     -23.62    3.87    3.88    0.01056    87.66  RIGHT     6.76214E-02  -132.08    1.60275E+00  -146.60
   70.00   170.00     -21.03    4.93    4.94    0.04906    89.35  RIGHT     9.11414E-02   121.06    1.81046E+00    43.99
   75.00   170.00     -21.82  -13.49  -12.89    0.05744    69.25  RIGHT     8.32060E-02    -4.85    2.17183E-01   -14.71
   80.00   170.00     -19.40    5.89    5.91    0.01678    87.04  RIGHT     1.10016E-01  -121.57    2.02267E+00  -139.60
   85.00   170.00     -18.78    5.67    5.69    0.03584    87.25  RIGHT     1.18116E-01    80.29    1.97199E+00    43.44
   90.00   170.00    -999.99 -190.67 -190.64    0.02508    85.60  RIGHT     2.43097E-11  -119.95    3.00357E-10  -138.11
    0.00   180.00     -23.24   -2.82   -2.78    0.04032    85.07  RIGHT     7.06857E-02  -143.88    7.42114E-01  -169.13
    5.00   180.00     -23.88   -1.99   -1.97    0.03044    85.74  RIGHT     6.56287E-02  -144.19    8.15779E-01  -166.55
   10.00   180.00     -24.03   -0.10   -0.08    0.00959    86.40  RIGHT     6.45437E-02  -159.76    1.01458E+00  -168.47
   15.00   180.00     -22.69    1.40    1.42    0.01568    86.54  LEFT      7.52811E-02   173.71    1.20629E+00  -171.68
   20.00   180.00     -20.66    0.55    0.58    0.04617    85.78  LEFT      9.51140E-02   149.91    1.09317E+00  -177.84
   25.00   180.00     -20.80   -7.16   -6.98    0.05366    78.64  LEFT      9.35587E-02   128.72    4.49909E-01   144.29
   30.00   180.00     -25.95   -0.17   -0.15    0.03359    87.77  RIGHT     5.17260E-02    77.19    1.00681E+00    36.28
   35.00   180.00     -21.29    2.55    2.57    0.03583    86.95  LEFT      8.84893E-02   -14.35    1.37686E+00    19.65
   40.00   180.00     -20.52   -8.46   -8.20    0.13134    78.02  RIGHT     9.66858E-02   -48.02    3.87578E-01   -81.37
   45.00   180.00     -24.47    4.02    4.02    0.00877    87.90  LEFT      6.13540E-02  -161.74    1.63007E+00  -148.25
   50.00   180.00     -19.58   -9.31   -8.92    0.03375    73.06  RIGHT     1.07723E-01   141.26    3.51500E-01   134.35
   55.00   180.00     -23.68    4.92    4.92    0.00744    87.91  LEFT      6.72160E-02    23.35    1.80772E+00    34.91
   60.00   180.00     -20.34   -3.81   -3.72    0.13874    86.86  RIGHT     9.87016E-02   -48.01    6.61611E-01  -116.88
   65.00   180.00     -21.13    3.90    3.92    0.02688    87.19  LEFT      9.01136E-02  -175.41    1.60841E+00  -146.66
   70.00   180.00     -21.60    4.94    4.95    0.03403    88.14  RIGHT     8.54037E-02    90.16    1.81326E+00    43.83
   75.00   180.00     -21.47  -13.47  -12.83    0.09412    68.83  LEFT      8.66682E-02   -29.88    2.17607E-01   -14.13
   80.00   180.00     -19.96    5.92    5.93    0.00648    87.11  RIGHT     1.03047E-01  -132.37    2.02796E+00  -139.72
   85.00   180.00     -18.14    5.69    5.71    0.03617    86.96  RIGHT     1.27087E-01    77.63    1.97603E+00    43.30
   90.00   180.00    -999.99 -190.65 -190.63    0.02261    85.83  RIGHT     2.29786E-11  -120.91    3.01084E-10  -138.24
    0.00   190.00     -14.46   -3.08   -2.78    0.04032    75.07  RIGHT     1.94114E-01  -160.33    7.19757E-01  -169.55
    5.00   190.00     -14.23   -2.26   -1.99    0.01068    75.87  RIGHT     1.99492E-01  -164.10    7.91566E-01  -166.68
   10.00   190.00     -13.00   -0.34   -0.11    0.02814    76.99  LEFT      2.29756E-01  -175.55    9.86879E-01  -168.23
   15.00   190.00     -11.75    1.19    1.41    0.06887    77.88  LEFT      2.65423E-01   170.28    1.17695E+00  -171.09
   20.00   190.00     -12.05    0.36    0.60    0.11282    78.07  LEFT      2.56184E-01   153.66    1.06993E+00  -176.87
   25.00   190.00     -16.19   -7.40   -6.86    0.14025    71.43  LEFT      1.59205E-01   120.64    4.37847E-01   146.00
   30.00   190.00     -16.79   -0.35   -0.25    0.03243    81.63  LEFT      1.48495E-01    24.27    9.85467E-01    36.97
   35.00   190.00     -12.73    2.43    2.56    0.11022    82.28  LEFT      2.36981E-01   -19.32    1.35704E+00    20.67
   40.00   190.00     -18.06   -8.72   -8.24    0.04274    71.29  RIGHT     1.28359E-01   -72.05    3.76091E-01   -80.08
   45.00   190.00     -14.86    3.92    3.97    0.06862    84.71  LEFT      1.85513E-01   175.76    1.61073E+00  -147.31
   50.00   190.00     -17.23   -9.48   -8.80    0.08423    68.14  LEFT      1.41184E-01   122.31    3.44679E-01   136.11
   55.00   190.00     -16.33    4.84    4.87    0.05343    86.05  LEFT      1.56516E-01    -2.07    1.79154E+00    35.85
   60.00   190.00     -19.09   -3.94   -3.81    0.11325    82.41  RIGHT     1.13967E-01   -74.83    6.51780E-01  -116.06
   65.00   190.00     -17.42    3.85    3.88    0.06471    86.72  LEFT      1.38117E-01   165.59    1.59837E+00  -145.71
   70.00   190.00     -19.96    4.88    4.89    0.01890    86.90  RIGHT     1.03092E-01    64.00    1.79956E+00    44.68
   75.00   190.00     -19.92  -13.53  -12.63    0.24560    67.50  LEFT      1.03581E-01   -49.03    2.16231E-01   -12.55
   80.00   190.00     -20.23    5.87    5.88    0.00407    87.17  LEFT      9.99906E-02  -143.56    2.01652E+00  -138.84
   85.00   190.00     -17.54    5.64    5.66    0.03632    86.62  RIGHT     1.36156E-01    75.87    1.96419E+00    44.15
   90.00   190.00    -999.99 -190.70 -190.68    0.01982    86.02  RIGHT     2.16648E-11  -121.40    2.99411E-10  -137.38
    0.00   200.00     -10.25   -3.63   -2.78    0.04032    65.07  RIGHT     3.15173E-01  -163.97    6.75571E-01  -170.00
    5.00   200.00      -9.81   -2.80   -2.01    0.00858    65.96  LEFT      3.31720E-01  -167.90    7.43564E-01  -166.58
   10.00   200.00      -8.39   -0.85   -0.14    0.06537    67.48  LEFT      3.90447E-01  -178.03    9.30739E-01  -167.52
   15.00   200.00      -7.21    0.73    1.38    0.12198    69.07  LEFT      4.47534E-01   169.83    1.11609E+00  -169.81
   20.00   200.00      -7.96   -0.05    0.60    0.17987    70.18  LEFT      4.10340E-01   154.71    1.02079E+00  -175.06
   25.00   200.00     -13.29   -7.83   -6.74    0.22467    64.02  LEFT      2.22307E-01   117.75    4.16719E-01   148.75
   30.00   200.00     -11.81   -0.72   -0.39    0.10209    75.45  LEFT      2.63407E-01    15.69    9.44727E-01    38.68
   35.00   200.00      -8.64    2.15    2.49    0.18786    77.61  LEFT      3.79393E-01   -20.17    1.31387E+00    22.74
   40.00   200.00     -15.62   -9.12   -8.24    0.04625    64.77  LEFT      1.70023E-01   -84.48    3.59141E-01   -77.62
   45.00   200.00     -10.41    3.69    3.86    0.13137    81.63  LEFT      3.09578E-01   171.84    1.56951E+00  -145.30
   50.00   200.00     -15.06   -9.75   -8.63    0.19693    63.04  LEFT      1.81324E-01   112.10    3.34137E-01   138.99
   55.00   200.00     -12.28    4.66    4.75    0.10121    84.30  LEFT      2.49653E-01    -8.12    1.75586E+00    37.84
   60.00   200.00     -17.02   -4.16   -3.94    0.08386    78.05  RIGHT     1.44683E-01   -91.55    6.35568E-01  -114.17
   65.00   200.00     -14.62    3.71    3.78    0.10317    86.37  LEFT      1.90667E-01   157.52    1.57388E+00  -143.72
   70.00   200.00     -17.74    4.74    4.76    0.00280    85.70  RIGHT     1.33103E-01    48.71    1.77067E+00    46.56
   75.00   200.00     -18.14  -13.64  -12.33    0.39499    65.34  LEFT      1.27124E-01   -60.94    2.13312E-01    -9.96
   80.00   200.00     -20.18    5.75    5.76    0.01477    87.23  LEFT      1.00580E-01  -153.98    1.98973E+00  -136.96
   85.00   200.00     -17.00    5.52    5.54    0.03601    86.25  RIGHT     1.44919E-01    74.92    1.93777E+00    46.00
   90.00   200.00    -999.99 -190.81 -190.79    0.01683    86.17  RIGHT     2.04010E-11  -121.34    2.95535E-10  -135.52
    0.00   210.00      -7.61   -4.51   -2.78    0.04032    55.07  RIGHT     4.27225E-01  -165.63    6.10909E-01  -170.54
    5.00   210.00      -7.08   -3.66   -2.03    0.02680    56.01  LEFT      4.54253E-01  -169.52    6.73244E-01  -166.21
   10.00   210.00      -5.59   -1.66   -0.18    0.10134    57.83  LEFT      5.39213E-01  -179.00    8.48143E-01  -166.20
   15.00   210.00      -4.43    0.00    1.34    0.17456    60.00  LEFT      6.15931E-01   169.76    1.02638E+00  -167.66
   20.00   210.00      -5.38   -0.68    0.59    0.24749    61.94  LEFT      5.52708E-01   155.39    9.48527E-01  -172.20
   25.00   210.00     -11.28   -8.45   -6.63    0.30661    56.20  LEFT      2.79917E-01   116.55    3.88107E-01   152.76
   30.00   210.00      -8.83   -1.27   -0.56    0.17789    69.19  LEFT      3.71490E-01    12.62    8.87097E-01    41.57
   35.00   210.00      -6.06    1.72    2.39    0.27155    72.93  LEFT      5.11026E-01   -20.25    1.25081E+00    26.00
   40.00   210.00     -13.70   -9.65   -8.21    0.13577    58.43  LEFT      2.11955E-01   -91.07    3.37994E-01   -73.84
   45.00   210.00      -7.66    3.35    3.69    0.19932    78.75  LEFT      4.24843E-01   170.55    1.51004E+00  -142.12
   50.00   210.00     -13.33  -10.10   -8.41    0.30421    57.70  LEFT      2.21103E-01   106.50    3.20938E-01   143.08
   55.00   210.00      -9.68    4.41    4.57    0.15195    82.79  LEFT      3.36867E-01   -10.38    1.70419E+00    40.95
   60.00   210.00     -15.14   -4.46   -4.10    0.04824    73.91  RIGHT     1.79655E-01  -100.87    6.14279E-01  -111.16
   65.00   210.00     -12.58    3.51    3.62    0.14222    86.23  LEFT      2.41038E-01   153.66    1.53768E+00  -140.67
[...]
   50.00   280.00     -10.39  -10.99   -7.67    0.89224   -26.10  LEFT      3.10390E-01   104.58    2.89493E-01  -160.26
   55.00   280.00      -5.17    3.14    3.74    0.37759   -85.98  LEFT      5.65707E-01    -7.68    1.47346E+00    91.34
   60.00   280.00     -11.71   -5.73   -4.75    0.32504    68.76  LEFT      2.66613E-01  -108.49    5.30445E-01   -61.38
   65.00   280.00      -8.90    2.57    2.87    0.24830   -84.37  LEFT      3.68394E-01   155.23    1.37936E+00   -94.52
   70.00   280.00     -12.28    3.59    3.71    0.13758    85.23  LEFT      2.49754E-01    35.10    1.55236E+00    94.52
   75.00   280.00     -13.63  -14.25  -10.91    0.69484   -39.10  LEFT      2.13789E-01   -71.40    1.99037E-01    38.61
   80.00   280.00     -19.59    4.79    4.81    0.05973    89.51  LEFT      1.07538E-01  -172.88    1.78204E+00   -91.02
   85.00   280.00     -15.59    4.57    4.61    0.00801    84.41  LEFT      1.70535E-01    86.82    1.73652E+00    91.54
   90.00   280.00    -999.99 -191.74 -191.72    0.00864    86.64  LEFT      1.57593E-11   -98.58    2.65688E-10   -90.17
    0.00   290.00      -3.63  -10.25   -2.78    0.04032   -24.93  RIGHT     6.75571E-01  -170.00    3.15173E-01    16.03
    5.00   290.00      -2.96   -9.36   -2.07    0.07646   -25.31  LEFT      7.29493E-01  -172.80    3.49302E-01    -4.05
   10.00   290.00      -1.33   -6.83   -0.25    0.20351   -26.28  LEFT      8.80256E-01  -179.89    4.67705E-01   -28.03
   15.00   290.00      -0.19   -4.26    1.25    0.32882   -28.55  LEFT      1.00430E+00   171.75    6.28431E-01   -49.54
   20.00   290.00      -1.39   -3.92    0.53    0.44050   -32.61  LEFT      8.74087E-01   160.45    6.53525E-01   -69.84
   25.00   290.00      -8.67  -10.05   -6.30    0.52825   -36.91  LEFT      3.78060E-01   121.92    3.22655E-01  -114.84
   30.00   290.00      -4.48   -3.72   -1.07    0.61443   -50.53  LEFT      6.12845E-01    11.06    6.68466E-01   127.49
   35.00   290.00      -2.06   -0.10    2.04    0.58210   -58.34  LEFT      8.09253E-01   -14.97    1.01399E+00   101.94
   40.00   290.00     -11.32  -10.73   -8.00    0.87786   -61.07  LEFT      2.78623E-01   -94.32    2.98539E-01     1.99
   45.00   290.00      -3.50    2.02    3.09    0.48194   -77.18  LEFT      6.86001E-01   174.48    1.29483E+00   -76.51
   50.00   290.00     -11.02  -10.59   -7.79    0.82864   -52.72  LEFT      2.88715E-01   106.86    3.03375E-01  -152.81
   55.00   290.00      -5.73    3.43    3.93    0.33220   -83.97  LEFT      5.30837E-01    -6.42    1.52372E+00    99.21
   60.00   290.00     -12.40   -5.42   -4.63    0.32791    72.87  LEFT      2.46190E-01  -106.30    5.49789E-01   -53.76
   65.00   290.00      -9.44    2.79    3.04    0.21821   -83.69  LEFT      3.46101E-01   157.16    1.41527E+00   -87.35
   70.00   290.00     -12.91    3.81    3.90    0.13080    86.30  LEFT      2.32198E-01    37.37    1.59140E+00   101.55
   75.00   290.00     -14.20  -14.04  -11.11    0.65337   -46.31  LEFT      2.00068E-01   -68.74    2.03787E-01    44.92
   80.00   290.00     -20.17    4.98    4.99    0.05490    89.64  LEFT      1.00599E-01  -167.80    1.82034E+00   -84.32
   85.00   290.00     -15.79    4.75    4.79    0.01339    84.68  LEFT      1.66675E-01    89.93    1.77332E+00    98.19
   90.00   290.00    -999.99 -191.56 -191.54    0.01147    86.64  LEFT      1.62061E-11   -94.67    2.71196E-10   -83.56
    0.00   300.00      -4.51   -7.61   -2.78    0.04032   -34.93  RIGHT     6.10909E-01  -170.54    4.27225E-01    14.37
    5.00   300.00      -3.84   -6.76   -2.05    0.06678   -35.46  LEFT      6.59476E-01  -173.14    4.71222E-01    -1.22
   10.00   300.00      -2.20   -4.57   -0.21    0.18153   -36.72  LEFT      7.96771E-01  -179.91    6.06243E-01   -21.30
   15.00   300.00      -1.04   -2.50    1.30    0.29032   -39.32  LEFT      9.10392E-01   172.10    7.69659E-01   -40.79
   20.00   300.00      -2.24   -2.62    0.59    0.38279   -43.32  LEFT      7.93392E-01   161.29    7.59404E-01   -60.65
   25.00   300.00      -9.61   -9.12   -6.35    0.47591   -47.56  LEFT      3.39565E-01   123.95    3.59226E-01  -107.06
   30.00   300.00      -5.42   -2.78   -0.89    0.48440   -59.22  LEFT      5.49972E-01    11.37    7.45568E-01   136.16
   35.00   300.00      -2.90    0.58    2.19    0.46566   -63.14  LEFT      7.34731E-01   -13.93    1.09724E+00   110.20
   40.00   300.00     -12.40  -10.05   -8.05    0.71969   -73.14  LEFT      2.46283E-01   -91.76    3.22793E-01     8.77
   45.00   300.00      -4.37    2.51    3.32    0.39117   -76.96  LEFT      6.20348E-01   175.52    1.37022E+00   -69.02
   50.00   300.00     -11.94  -10.15   -7.95    0.73076   -65.93  LEFT      2.59586E-01   109.98    3.18824E-01  -146.66
   55.00   300.00      -6.60    3.79    4.17    0.27857   -83.30  LEFT      4.80010E-01    -4.97    1.58858E+00   106.02
   60.00   300.00     -13.44   -5.04   -4.45    0.29977    76.74  LEFT      2.18448E-01  -103.11    5.74359E-01   -47.23
   65.00   300.00     -10.27    3.07    3.27    0.18539   -83.76  LEFT      3.14540E-01   159.58    1.46158E+00   -81.04
   70.00   300.00     -13.86    4.08    4.15    0.11650    87.15  LEFT      2.08027E-01    40.53    1.64218E+00   107.74
   75.00   300.00     -15.05  -13.81  -11.38    0.61633   -54.15  LEFT      1.81485E-01   -65.10    2.09204E-01    50.43
   80.00   300.00     -20.85    5.21    5.22    0.04927    89.61  LEFT      9.30135E-02  -160.49    1.87005E+00   -78.37
   85.00   300.00     -16.06    4.98    5.02    0.01651    85.02  LEFT      1.61603E-01    93.29    1.82119E+00   104.10
   90.00   300.00    -999.99 -191.33 -191.32    0.01419    86.63  LEFT      1.68805E-11   -91.25    2.78352E-10   -77.67
    0.00   310.00      -5.78   -5.80   -2.78    0.04032   -44.93  RIGHT     5.27752E-01  -171.23    5.26506E-01    13.38
    5.00   310.00      -5.12   -4.96   -2.03    0.05398   -45.54  LEFT      5.69210E-01  -173.58    5.79908E-01     0.24
   10.00   310.00      -3.46   -2.92   -0.17    0.15367   -46.90  LEFT      6.88716E-01  -179.97    7.33649E-01   -17.48
   15.00   310.00      -2.29   -1.09    1.36    0.24502   -49.43  LEFT      7.88717E-01   172.49    9.04922E-01   -35.33
   20.00   310.00      -3.46   -1.49    0.65    0.32115   -52.93  LEFT      6.89342E-01   162.29    8.64192E-01   -54.38
   25.00   310.00     -10.91   -8.31   -6.41    0.41834   -57.24  LEFT      2.92162E-01   126.70    3.94243E-01  -101.40
   30.00   310.00      -6.80   -1.90   -0.68    0.37031   -66.18  LEFT      4.69112E-01    11.70    8.24873E-01   142.42
   35.00   310.00      -4.12    1.25    2.36    0.36667   -68.05  LEFT      6.38670E-01   -12.73    1.18480E+00   116.57
   40.00   310.00     -13.90   -9.43   -8.10    0.57260   -79.67  LEFT      2.07160E-01   -87.88    3.46620E-01    13.82
   45.00   310.00      -5.65    3.01    3.57    0.30717   -78.36  LEFT      5.35778E-01   176.73    1.45135E+00   -63.03
   50.00   310.00     -13.20   -9.75   -8.13    0.62564   -74.84  LEFT      2.24449E-01   114.40    3.33909E-01  -141.81
   55.00   310.00      -7.87    4.17    4.44    0.22435   -83.69  LEFT      4.14923E-01    -3.19    1.65917E+00   111.64
   60.00   310.00     -14.89   -4.65   -4.26    0.24836    79.69  LEFT      1.84817E-01   -98.29    6.00991E-01   -41.92
   65.00   310.00     -11.44    3.37    3.51    0.15361   -84.44  LEFT      2.74984E-01   162.74    1.51209E+00   -75.74
   70.00   310.00     -15.19    4.37    4.42    0.09718    87.71  LEFT      1.78461E-01    45.11    1.69806E+00   112.95
   75.00   310.00     -16.19  -13.59  -11.69    0.57840   -62.81  LEFT      1.59125E-01   -60.04    2.14578E-01    55.03
   80.00   310.00     -21.52    5.46    5.47    0.04367    89.43  LEFT      8.61972E-02  -150.53    1.92469E+00   -73.32
   85.00   310.00     -16.38    5.23    5.26    0.01748    85.36  LEFT      1.55610E-01    96.89    1.87395E+00   109.12
   90.00   310.00    -999.99 -191.09 -191.07    0.01683    86.58  LEFT      1.77529E-11   -88.47    2.86228E-10   -72.67
    0.00   320.00      -7.58   -4.52   -2.78    0.04032   -54.93  RIGHT     4.28668E-01  -172.22    6.09897E-01    12.69
    5.00   320.00      -6.94   -3.68   -2.00    0.03855   -55.54  LEFT      4.61457E-01  -174.25    6.71609E-01     1.02
   10.00   320.00      -5.27   -1.71   -0.12    0.12142   -56.79  LEFT      5.59381E-01   179.88    8.42909E-01   -15.17
   15.00   320.00      -4.06   -0.02    1.42    0.19586   -58.97  LEFT      6.42998E-01   172.94    1.02340E+00   -31.81
   20.00   320.00      -5.18   -0.60    0.70    0.25902   -61.78  LEFT      5.65198E-01   163.59    9.57566E-01   -50.09
   25.00   320.00     -12.70   -7.67   -6.49    0.35812   -66.25  LEFT      2.37775E-01   130.77    4.24268E-01   -97.33
   30.00   320.00      -8.80   -1.16   -0.47    0.26969   -72.38  LEFT      3.72737E-01    12.05    8.97770E-01   146.82
   35.00   320.00      -5.84    1.83    2.51    0.28102   -72.99  LEFT      5.24124E-01   -11.22    1.26635E+00   121.30
   40.00   320.00     -15.96   -8.92   -8.13    0.43660   -85.16  LEFT      1.63403E-01   -81.47    3.67655E-01    17.39
   45.00   320.00      -7.46    3.46    3.80    0.23189   -80.61  LEFT      4.34991E-01   178.27    1.52849E+00   -58.43
   50.00   320.00     -14.86   -9.42   -8.33    0.51798   -82.18  LEFT      1.85467E-01   121.07    3.46980E-01  -138.16
   55.00   320.00      -9.65    4.52    4.68    0.17310   -84.79  LEFT      3.37786E-01    -0.80    1.72697E+00   116.06
   60.00   320.00     -16.84   -4.28   -4.05    0.18333    81.58  LEFT      1.47604E-01   -90.46    6.26695E-01   -37.82
   65.00   320.00     -13.02    3.64    3.73    0.12473   -85.57  LEFT      2.29187E-01   167.20    1.56063E+00   -71.49
   70.00   320.00     -16.97    4.65    4.68    0.07505    87.97  LEFT      1.45395E-01    52.19    1.75241E+00   117.12
   75.00   320.00     -17.64  -13.41  -12.02    0.53364   -72.18  LEFT      1.34623E-01   -52.66    2.19244E-01    58.68
   80.00   320.00     -21.95    5.70    5.71    0.03861    89.13  LEFT      8.19942E-02  -137.90    1.97769E+00   -69.24
   85.00   320.00     -16.76    5.46    5.49    0.01664    85.68  LEFT      1.49019E-01   100.69    1.92531E+00   113.18
   90.00   320.00    -999.99 -190.86 -190.84    0.01944    86.51  LEFT      1.87898E-11   -86.39    2.93881E-10   -68.62
    0.00   330.00     -10.21   -3.64   -2.78    0.04032   -64.93  RIGHT     3.16766E-01  -173.86    6.74826E-01    12.15
    5.00   330.00      -9.61   -2.80   -1.98    0.02104   -65.47  LEFT      3.39544E-01  -175.40    7.43375E-01     1.41
   10.00   330.00      -7.91   -0.86   -0.08    0.08614   -66.45  LEFT      4.12701E-01   179.55    9.29371E-01   -13.77
   15.00   330.00      -6.64    0.75    1.47    0.14481   -68.07  LEFT      4.77684E-01   173.58    1.11821E+00   -29.54
   20.00   330.00      -7.66    0.05    0.73    0.19783   -70.10  LEFT      4.24925E-01   165.57    1.03266E+00   -47.18
   25.00   330.00     -15.16   -7.22   -6.57    0.29643   -74.79  LEFT      1.79166E-01   137.59    4.46892E-01   -94.49
   30.00   330.00     -11.80   -0.60   -0.28    0.17927   -78.18  LEFT      2.63780E-01    12.52    9.58144E-01   149.78
   35.00   330.00      -8.30    2.28    2.64    0.20527   -77.94  LEFT      3.94811E-01    -8.97    1.33399E+00   124.65
   40.00   330.00     -18.72   -8.53   -8.14    0.30944    89.71  LEFT      1.18896E-01   -69.44    3.84178E-01    19.72
   45.00   330.00     -10.09    3.82    4.00    0.16437   -83.34  LEFT      3.21267E-01  -179.39    1.59369E+00   -55.10
   50.00   330.00     -16.93   -9.18   -8.50    0.40925   -88.79  LEFT      1.46195E-01   131.92    3.56762E-01  -135.62
   55.00   330.00     -12.22    4.81    4.89    0.12576   -86.37  LEFT      2.51405E-01     3.00    1.78468E+00   119.33
   60.00   330.00     -19.30   -3.98   -3.86    0.11167    82.59  LEFT      1.11193E-01   -76.37    6.48960E-01   -34.86
   65.00   330.00     -15.14    3.87    3.92    0.09919   -87.00  LEFT      1.79675E-01   174.17    1.60178E+00   -68.29
   70.00   330.00     -19.23    4.88    4.89    0.05161    88.00  LEFT      1.12151E-01    64.25    1.79934E+00   120.25
   75.00   330.00     -19.35  -13.27  -12.32    0.47713   -81.89  LEFT      1.10611E-01   -41.37    2.22641E-01    61.37
   80.00   330.00     -21.93    5.90    5.90    0.03426    88.75  LEFT      8.22195E-02  -123.63    2.02316E+00   -66.14
   85.00   330.00     -17.17    5.66    5.68    0.01442    85.95  LEFT      1.42160E-01   104.66    1.96962E+00   116.25
   90.00   330.00    -999.99 -190.67 -190.65    0.02204    86.41  LEFT      1.99560E-11   -85.00    3.00461E-10   -65.54
    0.00   340.00     -14.39   -3.09   -2.78    0.04032   -74.93  RIGHT     1.95799E-01  -177.45    7.19300E-01    11.69
    5.00   340.00     -13.89   -2.24   -1.95    0.00204   -75.35  LEFT      2.07371E-01  -178.00    7.92965E-01     1.52
   10.00   340.00     -12.16   -0.31   -0.04    0.04893   -75.91  LEFT      2.53155E-01   178.74    9.89784E-01   -12.99
   15.00   340.00     -10.75    1.25    1.51    0.09300   -76.85  LEFT      2.97853E-01   174.80    1.18478E+00   -28.15
   20.00   340.00     -11.49    0.48    0.75    0.13789   -78.08  LEFT      2.73363E-01   169.52    1.08491E+00   -45.31
   25.00   340.00     -18.54   -6.96   -6.67    0.23366   -83.02  LEFT      1.21419E-01   151.34    4.60497E-01   -92.66
   30.00   340.00     -16.96   -0.21   -0.12    0.09608   -83.78  LEFT      1.45561E-01    13.56    1.00183E+00   151.57
   35.00   340.00     -12.08    2.59    2.73    0.13640   -82.90  LEFT      2.55322E-01    -4.59    1.38207E+00   126.86
   40.00   340.00     -21.82   -8.29   -8.10    0.18929    84.71  LEFT      8.32282E-02   -43.99    3.95037E-01    20.96
   45.00   340.00     -14.26    4.08    4.14    0.10270   -86.33  LEFT      1.98716E-01  -174.52    1.64106E+00   -52.90
   50.00   340.00     -19.13   -9.04   -8.64    0.30061    85.00  LEFT      1.13414E-01   150.59    3.62374E-01  -134.13
   55.00   340.00     -16.15    5.01    5.04    0.08186   -88.23  LEFT      1.59856E-01    10.96    1.82671E+00   121.53
   60.00   340.00     -21.58   -3.76   -3.69    0.03718    82.99  LEFT      8.55471E-02   -50.08    6.65885E-01   -32.99
   65.00   340.00     -17.89    4.03    4.05    0.07658   -88.63  LEFT      1.30828E-01  -173.30    1.63127E+00   -66.11
   70.00   340.00     -21.57    5.04    5.05    0.02762    87.84  LEFT      8.57025E-02    86.06    1.83422E+00   122.36
   75.00   340.00     -20.99  -13.21  -12.54    0.40733    88.55  LEFT      9.15586E-02   -23.92    2.24358E-01    63.11
   80.00   340.00     -21.36    6.04    6.04    0.03054    88.29  LEFT      8.77616E-02  -109.77    2.05636E+00   -64.02
   85.00   340.00     -17.60    5.81    5.83    0.01122    86.19  LEFT      1.35345E-01   108.75    2.00233E+00   118.35
   90.00   340.00    -999.99 -190.53 -190.51    0.02462    86.28  LEFT      2.12167E-11   -84.28    3.05284E-10   -63.44
    0.00   350.00     -23.04   -2.82   -2.78    0.04032   -84.93  RIGHT     7.22819E-02   166.62    7.41961E-01    11.28
    5.00   350.00     -23.24   -1.96   -1.93    0.01789   -85.17  RIGHT     7.06986E-02   169.37    8.18857E-01     1.42
   10.00   350.00     -21.56   -0.04   -0.01    0.01070   -85.24  LEFT      8.58024E-02   174.69    1.02202E+00   -12.69
   15.00   350.00     -19.44    1.50    1.54    0.04100   -85.44  LEFT      1.09411E-01   179.95    1.22020E+00   -27.45
   20.00   350.00     -18.73    0.69    0.74    0.07885   -85.88  LEFT      1.18743E-01  -176.38    1.11141E+00   -44.27
   25.00   350.00     -22.25   -6.89   -6.77    0.16973    88.96  LEFT      7.92276E-02  -175.75    4.64125E-01   -91.69
   30.00   350.00     -33.30    0.00    0.00    0.01747   -89.27  LEFT      2.22007E-02    26.23    1.02621E+00   152.37
   35.00   350.00     -19.10    2.74    2.77    0.07170   -87.85  LEFT      1.13886E-01    10.53    1.40695E+00   128.03
   40.00   350.00     -22.34   -8.19   -8.03    0.07481    79.71  LEFT      7.84304E-02    -1.99    3.99593E-01    21.19
   45.00   350.00     -22.59    4.21    4.22    0.04472   -89.46  LEFT      7.61834E-02  -153.67    1.66667E+00   -51.74
   50.00   350.00     -20.28   -9.02   -8.71    0.19330    79.03  LEFT      9.94106E-02   179.31    3.63319E-01  -133.64
   55.00   350.00     -22.73    5.11    5.12    0.04029    89.75  LEFT      7.49382E-02    38.88    1.84923E+00   122.70
   60.00   350.00     -21.43   -3.62   -3.55    0.03860    82.99  RIGHT     8.70959E-02   -14.43    6.76209E-01   -32.14
   65.00   350.00     -20.87    4.10    4.12    0.05599    89.61  LEFT      9.28370E-02  -148.05    1.64614E+00   -64.92
   70.00   350.00     -22.27    5.14    5.14    0.00338    87.57  LEFT      7.89829E-02   118.93    1.85381E+00   123.48
   75.00   350.00     -21.74  -13.21  -12.64    0.32697    79.55  LEFT      8.39835E-02    -0.13    2.24143E-01    63.90
   80.00   350.00     -20.39    6.11    6.12    0.02726    87.79  LEFT      9.80818E-02   -98.14    2.07399E+00   -62.87
   85.00   350.00     -18.02    5.88    5.90    0.00732    86.38  LEFT      1.28839E-01   112.87    2.02028E+00   119.48
   90.00   350.00    -999.99 -190.46 -190.43    0.02714    86.11  LEFT      2.25374E-11   -84.17    3.07873E-10   -62.30
    0.00   360.00     -23.24   -2.82   -2.78    0.04032    85.07  RIGHT     7.06857E-02    36.12    7.42114E-01    10.87
    5.00   360.00     -22.39   -1.95   -1.91    0.03816    85.03  RIGHT     7.79405E-02    24.96    8.20286E-01     1.10
   10.00   360.00     -21.56   -0.01    0.02    0.02780    85.49  RIGHT     8.57997E-02     6.72    1.02500E+00   -12.81
   15.00   360.00     -21.58    1.52    1.54    0.01096    86.05  RIGHT     8.55583E-02   -18.30    1.22300E+00   -27.35
   20.00   360.00     -22.94    0.69    0.71    0.02004    86.41  LEFT      7.31956E-02   -61.75    1.11071E+00   -43.98
   25.00   360.00     -21.51   -7.02   -6.87    0.10437    81.08  LEFT      8.62101E-02  -126.10    4.57391E-01   -91.54
   30.00   360.00     -19.83    0.03    0.08    0.05893    85.26  RIGHT     1.04715E-01  -172.03    1.03002E+00   152.27
   35.00   360.00     -23.32    2.74    2.75    0.00863    87.19  LEFT      6.99931E-02   118.24    1.40674E+00   128.26
   40.00   360.00     -19.39   -8.23   -7.91    0.03499    74.64  RIGHT     1.10147E-01    28.25    3.97674E-01    20.45
   45.00   360.00     -22.20    4.22    4.23    0.01177    87.35  RIGHT     7.96196E-02   -37.27    1.66848E+00   -51.58
   50.00   360.00     -19.16   -9.11   -8.70    0.08859    73.20  LEFT      1.13084E-01  -152.02    3.59479E-01  -134.13
   55.00   360.00     -22.63    5.12    5.13    0.00033    87.65  RIGHT     7.58136E-02   123.35    1.85024E+00   122.89
   60.00   360.00     -18.92   -3.58   -3.46    0.11535    82.80  RIGHT     1.16152E-01    10.97    6.79297E-01   -32.28
   65.00   360.00     -21.43    4.10    4.11    0.03631    87.80  LEFT      8.70534E-02  -108.12    1.64484E+00   -64.71
   70.00   360.00     -20.41    5.15    5.16    0.02117    87.24  RIGHT     9.78632E-02   147.38    1.85639E+00   123.64
   75.00   360.00     -20.97  -13.30  -12.61    0.24151    71.34  LEFT      9.18335E-02    23.51    2.21918E-01    63.74
   80.00   360.00     -19.26    6.11    6.12    0.02411    87.24  LEFT      1.11720E-01   -89.34    2.07429E+00   -62.68
   85.00   360.00     -18.44    5.89    5.91    0.00293    86.53  LEFT      1.22835E-01   116.89    2.02174E+00   119.66
   90.00   360.00    -999.99 -190.46 -190.43    0.02951    85.90  LEFT      2.38835E-11   -84.59    3.07970E-10   -62.11


   AVERAGE POWER GAIN= 1.58267E+00       SOLID ANGLE USED IN AVERAGING=( 2.0000)*PI STERADIANS.








 ***** DATA CARD NO.  6   EN   0    19    37  1003  0.00000E+00  0.00000E+00  5.00000E+00  1.00000E+01  0.00000E+00  0.00000E+00

 RUN TIME =     0.141
